<?xml version="1.0" encoding="UTF-8"?>

<!-- generated on 2026-01-26 23:01:46.703560 by Eclipse SUMO randomTrips.py v1_25_0+0000-ac6c5a6752d
<configuration>
    <net-file value="osm.net.xml"/>
    <output-trip-file value="trips/busDefault.trips.xml"/>
    <prefix value="b_"/>
    <trip-attributes value="guiShape='bus'"/>
    <vehicle-class value="bus"/>
    <end value="6000.0"/>
    <period value="37.0"/>
</configuration>
-->

<routes xmlns:xsi="http://www.w3.org/2001/XMLSchema-instance" xsi:noNamespaceSchemaLocation="http://sumo.dlr.de/xsd/routes_file.xsd">
    <vType id="b__bus" vClass="bus" guiShape='bus'/>
    <trip id="b_0" depart="0.00" from="173522653#0" to="-105159772#14" type="b__bus"/>
    <trip id="b_1" depart="37.00" from="-400978922#3" to="-288974420#0" type="b__bus"/>
    <trip id="b_2" depart="74.00" from="288974454#0" to="25583275#22" type="b__bus"/>
    <trip id="b_3" depart="111.00" from="78828539#8" to="-106545970#6" type="b__bus"/>
    <trip id="b_4" depart="148.00" from="-88141673#2" to="-105159774#0" type="b__bus"/>
    <trip id="b_5" depart="185.00" from="-288794737#1" to="105159771#16" type="b__bus"/>
    <trip id="b_6" depart="222.00" from="-105159772#17" to="-25630529#17" type="b__bus"/>
    <trip id="b_7" depart="259.00" from="23173789#1" to="105232027#7" type="b__bus"/>
    <trip id="b_8" depart="296.00" from="-288794737#6" to="106546033" type="b__bus"/>
    <trip id="b_9" depart="333.00" from="41691152#12" to="-105159760#17" type="b__bus"/>
    <trip id="b_10" depart="370.00" from="41691149#4" to="25630529#18" type="b__bus"/>
    <trip id="b_11" depart="407.00" from="-476424899#9" to="-25541837#0" type="b__bus"/>
    <trip id="b_12" depart="444.00" from="89562672#0" to="-49850017#0" type="b__bus"/>
    <trip id="b_13" depart="481.00" from="-106545982#2" to="-106546024#0" type="b__bus"/>
    <trip id="b_14" depart="518.00" from="494611386#1" to="106550090#15" type="b__bus"/>
    <trip id="b_15" depart="555.00" from="41691152#0" to="288974454#9" type="b__bus"/>
    <trip id="b_16" depart="592.00" from="105159774#0" to="89562703#30" type="b__bus"/>
    <trip id="b_17" depart="629.00" from="-78828534#7" to="105232030#27" type="b__bus"/>
    <trip id="b_18" depart="666.00" from="44014594#1" to="106620701#2" type="b__bus"/>
    <trip id="b_19" depart="703.00" from="705955085#3" to="106545970#7" type="b__bus"/>
    <trip id="b_20" depart="740.00" from="25630216#8" to="-105168427#6" type="b__bus"/>
    <trip id="b_21" depart="777.00" from="-288974406#1" to="-41691147#14" type="b__bus"/>
    <trip id="b_22" depart="814.00" from="-106545959#3" to="-33189690#12" type="b__bus"/>
    <trip id="b_23" depart="851.00" from="-106546024#4" to="-400978937#5" type="b__bus"/>
    <trip id="b_24" depart="888.00" from="1428541328" to="-78828534#4" type="b__bus"/>
    <trip id="b_25" depart="925.00" from="-725476480#0" to="-288794737#1" type="b__bus"/>
    <trip id="b_26" depart="962.00" from="-400978914#8" to="89562658#1" type="b__bus"/>
    <trip id="b_27" depart="999.00" from="23173787" to="106550090#7" type="b__bus"/>
    <trip id="b_28" depart="1036.00" from="-25561499#28" to="288974454#8" type="b__bus"/>
    <trip id="b_29" depart="1073.00" from="-25561499#12" to="-78828539#9" type="b__bus"/>
    <trip id="b_30" depart="1110.00" from="902796264" to="23173789#12" type="b__bus"/>
    <trip id="b_31" depart="1147.00" from="105168446#7" to="25630215#0" type="b__bus"/>
    <trip id="b_32" depart="1184.00" from="476424900#1" to="400978929#6" type="b__bus"/>
    <trip id="b_33" depart="1221.00" from="-288974406#3" to="-105159774#4" type="b__bus"/>
    <trip id="b_34" depart="1258.00" from="-41691155#6" to="-400978926#0" type="b__bus"/>
    <trip id="b_35" depart="1295.00" from="-25630529#3" to="89562658#23" type="b__bus"/>
    <trip id="b_36" depart="1332.00" from="78828534#13" to="-419958542" type="b__bus"/>
    <trip id="b_37" depart="1369.00" from="23173789#5" to="-80444868#1" type="b__bus"/>
    <trip id="b_38" depart="1406.00" from="876288098#1" to="-89562703#26" type="b__bus"/>
    <trip id="b_39" depart="1443.00" from="-400978914#12" to="-376714133#5" type="b__bus"/>
    <trip id="b_40" depart="1480.00" from="105232027#4" to="-400978919#1" type="b__bus"/>
    <trip id="b_41" depart="1517.00" from="106545960#10" to="78828552#2" type="b__bus"/>
    <trip id="b_42" depart="1554.00" from="-78828551#4" to="-288974406#2" type="b__bus"/>
    <trip id="b_43" depart="1591.00" from="904673614#8" to="105159771#5" type="b__bus"/>
    <trip id="b_44" depart="1628.00" from="-106545970#9" to="-105168430#0" type="b__bus"/>
    <trip id="b_45" depart="1665.00" from="-106550079#1" to="1456785327" type="b__bus"/>
    <trip id="b_46" depart="1702.00" from="40989449#1" to="-89562654#1" type="b__bus"/>
    <trip id="b_47" depart="1739.00" from="-105232030#23" to="-78828544#6" type="b__bus"/>
    <trip id="b_48" depart="1776.00" from="904673614#5" to="105168427#17" type="b__bus"/>
    <trip id="b_49" depart="1813.00" from="89562703#22" to="711802514#5" type="b__bus"/>
    <trip id="b_50" depart="1850.00" from="-105159764#2" to="288974406#1" type="b__bus"/>
    <trip id="b_51" depart="1887.00" from="25561514#2" to="105168446#1" type="b__bus"/>
    <trip id="b_52" depart="1924.00" from="-400978914#8" to="23173789#14" type="b__bus"/>
    <trip id="b_53" depart="1961.00" from="-106550084" to="-89562658#9" type="b__bus"/>
    <trip id="b_54" depart="1998.00" from="-89562661#16" to="89562668" type="b__bus"/>
    <trip id="b_55" depart="2035.00" from="78828534#11" to="-400978921" type="b__bus"/>
    <trip id="b_56" depart="2072.00" from="-904673614#5" to="-25583275#3" type="b__bus"/>
    <trip id="b_57" depart="2109.00" from="80444869#7" to="78828534#2" type="b__bus"/>
    <trip id="b_58" depart="2146.00" from="-40989963#1" to="23173789#10" type="b__bus"/>
    <trip id="b_59" depart="2183.00" from="106550068#0" to="-23627726#2" type="b__bus"/>
    <trip id="b_60" depart="2220.00" from="376718512#8" to="105232027#0" type="b__bus"/>
    <trip id="b_61" depart="2257.00" from="400978926#0" to="105168427#21" type="b__bus"/>
    <trip id="b_62" depart="2294.00" from="-100834037#1" to="-476424898#6" type="b__bus"/>
    <trip id="b_63" depart="2331.00" from="-105159771#20" to="893735984" type="b__bus"/>
    <trip id="b_64" depart="2368.00" from="78828534#5" to="476424899#10" type="b__bus"/>
    <trip id="b_65" depart="2405.00" from="-41691149#8" to="-105232030#0" type="b__bus"/>
    <trip id="b_66" depart="2442.00" from="78828534#3" to="89562661#12" type="b__bus"/>
    <trip id="b_67" depart="2479.00" from="-106545970#0" to="100834037#0" type="b__bus"/>
    <trip id="b_68" depart="2516.00" from="-105232039" to="400978914#9" type="b__bus"/>
    <trip id="b_69" depart="2553.00" from="400978914#10" to="-1428527847" type="b__bus"/>
    <trip id="b_70" depart="2590.00" from="-89562703#22" to="105232030#2" type="b__bus"/>
    <trip id="b_71" depart="2627.00" from="-400978914#2" to="78828534#5" type="b__bus"/>
    <trip id="b_72" depart="2664.00" from="-88141674#1" to="-288794737#6" type="b__bus"/>
    <trip id="b_73" depart="2701.00" from="105159774#6" to="288974457#0" type="b__bus"/>
    <trip id="b_74" depart="2738.00" from="-25630218#0" to="-41691163#24" type="b__bus"/>
    <trip id="b_75" depart="2775.00" from="904673614#3" to="23173860#8" type="b__bus"/>
    <trip id="b_76" depart="2812.00" from="-89562655#0" to="105159774#0" type="b__bus"/>
    <trip id="b_77" depart="2849.00" from="-106550090#6" to="-288974454#2" type="b__bus"/>
    <trip id="b_78" depart="2886.00" from="-476424899#10" to="106546024#4" type="b__bus"/>
    <trip id="b_79" depart="2923.00" from="-288974406#5" to="-288974406#3" type="b__bus"/>
    <trip id="b_80" depart="2960.00" from="-105232041#0" to="191555412#1" type="b__bus"/>
    <trip id="b_81" depart="2997.00" from="-288974406#3" to="80444869#7" type="b__bus"/>
    <trip id="b_82" depart="3034.00" from="701022113" to="-105232041#2" type="b__bus"/>
    <trip id="b_83" depart="3071.00" from="-288974458#0" to="25561514#1" type="b__bus"/>
    <trip id="b_84" depart="3108.00" from="-283440274" to="-191555413#0" type="b__bus"/>
    <trip id="b_85" depart="3145.00" from="89562654#1" to="106545960#6" type="b__bus"/>
    <trip id="b_86" depart="3182.00" from="-89562703#16" to="40989449#1" type="b__bus"/>
    <trip id="b_87" depart="3219.00" from="41691152#0" to="-25630216#13" type="b__bus"/>
    <trip id="b_88" depart="3256.00" from="-106546019#1" to="-89562658#19" type="b__bus"/>
    <trip id="b_89" depart="3293.00" from="-88141674#2" to="-89562711#1" type="b__bus"/>
    <trip id="b_90" depart="3330.00" from="288839028#9" to="25583275#13" type="b__bus"/>
    <trip id="b_91" depart="3367.00" from="899914841#7" to="-106546024#4" type="b__bus"/>
    <trip id="b_92" depart="3404.00" from="-78828552#17" to="-49850018#2" type="b__bus"/>
    <trip id="b_93" depart="3441.00" from="705955085#3" to="-376718512#2" type="b__bus"/>
    <trip id="b_94" depart="3478.00" from="-25630213#4" to="-89562689#3" type="b__bus"/>
    <trip id="b_95" depart="3515.00" from="-88141673#2" to="-400978939" type="b__bus"/>
    <trip id="b_96" depart="3552.00" from="-33189690#7" to="88141691#0" type="b__bus"/>
    <trip id="b_97" depart="3589.00" from="-89562658#11" to="711802514#7" type="b__bus"/>
    <trip id="b_98" depart="3626.00" from="105168427#26" to="-105168446#7" type="b__bus"/>
    <trip id="b_99" depart="3663.00" from="931822795#1" to="476424900#2" type="b__bus"/>
    <trip id="b_100" depart="3700.00" from="89562703#17" to="88213886#0" type="b__bus"/>
    <trip id="b_101" depart="3737.00" from="494758078" to="-25561499#33" type="b__bus"/>
    <trip id="b_102" depart="3774.00" from="-89562711#2" to="-288839028#1" type="b__bus"/>
    <trip id="b_103" depart="3811.00" from="-78828552#13" to="-105232030#10" type="b__bus"/>
    <trip id="b_104" depart="3848.00" from="-78828534#8" to="902777247#4" type="b__bus"/>
    <trip id="b_105" depart="3885.00" from="-400978914#2" to="40989449#0" type="b__bus"/>
    <trip id="b_106" depart="3922.00" from="-89562661#19" to="-89562654#2" type="b__bus"/>
    <trip id="b_107" depart="3959.00" from="89562672#0" to="904673614#5" type="b__bus"/>
    <trip id="b_108" depart="3996.00" from="105168446#4" to="288839028#6" type="b__bus"/>
    <trip id="b_109" depart="4033.00" from="-23173860#0" to="-41691152#1" type="b__bus"/>
    <trip id="b_110" depart="4070.00" from="89562703#16" to="106545982#1" type="b__bus"/>
    <trip id="b_111" depart="4107.00" from="105168401#4" to="376714132" type="b__bus"/>
    <trip id="b_112" depart="4144.00" from="-105232027#6" to="106546019#1" type="b__bus"/>
    <trip id="b_113" depart="4181.00" from="-904673614#9" to="645739342#0" type="b__bus"/>
    <trip id="b_114" depart="4218.00" from="-23173860#5" to="89562689#4" type="b__bus"/>
    <trip id="b_115" depart="4255.00" from="-106545959#4" to="-25630215#0" type="b__bus"/>
    <trip id="b_116" depart="4292.00" from="106545982#0" to="25583275#18" type="b__bus"/>
    <trip id="b_117" depart="4329.00" from="-288974454#7" to="-106550095#8" type="b__bus"/>
    <trip id="b_118" depart="4366.00" from="78828539#35" to="-376714133#4" type="b__bus"/>
    <trip id="b_119" depart="4403.00" from="106545970#9" to="106620701#3" type="b__bus"/>
    <trip id="b_120" depart="4440.00" from="-878249329#7" to="106546019#0" type="b__bus"/>
    <trip id="b_121" depart="4477.00" from="105159771#13" to="89562656#0" type="b__bus"/>
    <trip id="b_122" depart="4514.00" from="-25630529#11" to="288839028#11" type="b__bus"/>
    <trip id="b_123" depart="4551.00" from="-289548195" to="-80444868#1" type="b__bus"/>
    <trip id="b_124" depart="4588.00" from="25561499#22" to="-41691152#3" type="b__bus"/>
    <trip id="b_125" depart="4625.00" from="-41691155#8" to="376718512#1" type="b__bus"/>
    <trip id="b_126" depart="4662.00" from="-105232041#3" to="-89562703#24" type="b__bus"/>
    <trip id="b_127" depart="4699.00" from="931822795#0" to="904673614#6" type="b__bus"/>
    <trip id="b_128" depart="4736.00" from="-105232045#1" to="-288839028#0" type="b__bus"/>
    <trip id="b_129" depart="4773.00" from="-400978914#2" to="89562655#2" type="b__bus"/>
    <trip id="b_130" depart="4810.00" from="78828539#1" to="78828539#22" type="b__bus"/>
    <trip id="b_131" depart="4847.00" from="-725476479#1" to="-25561499#15" type="b__bus"/>
    <trip id="b_132" depart="4884.00" from="476424892" to="25676052#0" type="b__bus"/>
    <trip id="b_133" depart="4921.00" from="106550078#2" to="902777248#2" type="b__bus"/>
    <trip id="b_134" depart="4958.00" from="23173789#19" to="-105159760#6" type="b__bus"/>
    <trip id="b_135" depart="4995.00" from="41691157#3" to="-41691152#2" type="b__bus"/>
    <trip id="b_136" depart="5032.00" from="23961341" to="89562658#15" type="b__bus"/>
    <trip id="b_137" depart="5069.00" from="-113339441#1" to="-106550091" type="b__bus"/>
    <trip id="b_138" depart="5106.00" from="-106550069" to="105232030#4" type="b__bus"/>
    <trip id="b_139" depart="5143.00" from="-400978919#0" to="106550090#17" type="b__bus"/>
    <trip id="b_140" depart="5180.00" from="27163042" to="-25630529#3" type="b__bus"/>
    <trip id="b_141" depart="5217.00" from="128252747#7" to="-400978922#0" type="b__bus"/>
    <trip id="b_142" depart="5254.00" from="-899914841#4" to="80444869#7" type="b__bus"/>
    <trip id="b_143" depart="5291.00" from="494611384" to="-106546013#1" type="b__bus"/>
    <trip id="b_144" depart="5328.00" from="-88141674#2" to="-400978937#2" type="b__bus"/>
    <trip id="b_145" depart="5365.00" from="-105159760#0" to="400978926#1" type="b__bus"/>
    <trip id="b_146" depart="5402.00" from="1428609378#4" to="-400978919#0" type="b__bus"/>
    <trip id="b_147" depart="5439.00" from="288974458#0" to="105232030#27" type="b__bus"/>
    <trip id="b_148" depart="5476.00" from="-88141687#2" to="-105159761#1" type="b__bus"/>
    <trip id="b_149" depart="5513.00" from="-105232045#7" to="78828539#34" type="b__bus"/>
    <trip id="b_150" depart="5550.00" from="78828552#17" to="105232027#8" type="b__bus"/>
    <trip id="b_151" depart="5587.00" from="476424898#0" to="106546013#1" type="b__bus"/>
    <trip id="b_152" depart="5624.00" from="-23173789#1" to="-128252747#6" type="b__bus"/>
    <trip id="b_153" depart="5661.00" from="-41691152#1" to="78828552#7" type="b__bus"/>
    <trip id="b_154" depart="5698.00" from="40989954#1" to="711802514#5" type="b__bus"/>
    <trip id="b_155" depart="5735.00" from="78828551#1" to="-288794737#2" type="b__bus"/>
    <trip id="b_156" depart="5772.00" from="-33189690#7" to="-106550068#1" type="b__bus"/>
    <trip id="b_157" depart="5809.00" from="400978927#3" to="78828539#36" type="b__bus"/>
    <trip id="b_158" depart="5846.00" from="-80444862" to="113339437#1" type="b__bus"/>
    <trip id="b_159" depart="5883.00" from="-23173789#7" to="89562653" type="b__bus"/>
    <trip id="b_160" depart="5920.00" from="711802514#10" to="89562703#8" type="b__bus"/>
    <trip id="b_161" depart="5957.00" from="41691152#3" to="78828539#26" type="b__bus"/>
    <trip id="b_162" depart="5994.00" from="-105159772#10" to="33189593#3" type="b__bus"/>
</routes>
