<?xml version="1.0" encoding="UTF-8"?>

<!-- generated on 2026-01-26 23:01:46.170482 by Eclipse SUMO randomTrips.py v1_25_0+0000-ac6c5a6752d
<configuration>
    <net-file value="osm.net.xml"/>
    <output-trip-file value="trips/busQuiet.trips.xml"/>
    <prefix value="b_"/>
    <trip-attributes value="guiShape='bus'"/>
    <vehicle-class value="bus"/>
    <end value="6000.0"/>
    <period value="50.0"/>
</configuration>
-->

<routes xmlns:xsi="http://www.w3.org/2001/XMLSchema-instance" xsi:noNamespaceSchemaLocation="http://sumo.dlr.de/xsd/routes_file.xsd">
    <vType id="b__bus" vClass="bus" guiShape='bus'/>
    <trip id="b_0" depart="0.00" from="173522653#0" to="-105159772#14" type="b__bus"/>
    <trip id="b_1" depart="50.00" from="-400978922#3" to="-288974420#0" type="b__bus"/>
    <trip id="b_2" depart="100.00" from="288974454#0" to="25583275#22" type="b__bus"/>
    <trip id="b_3" depart="150.00" from="78828539#8" to="-106545970#6" type="b__bus"/>
    <trip id="b_4" depart="200.00" from="-88141673#2" to="-105159774#0" type="b__bus"/>
    <trip id="b_5" depart="250.00" from="-288794737#1" to="105159771#16" type="b__bus"/>
    <trip id="b_6" depart="300.00" from="-105159772#17" to="-25630529#17" type="b__bus"/>
    <trip id="b_7" depart="350.00" from="23173789#1" to="105232027#7" type="b__bus"/>
    <trip id="b_8" depart="400.00" from="-288794737#6" to="106546033" type="b__bus"/>
    <trip id="b_9" depart="450.00" from="41691152#12" to="-105159760#17" type="b__bus"/>
    <trip id="b_10" depart="500.00" from="41691149#4" to="25630529#18" type="b__bus"/>
    <trip id="b_11" depart="550.00" from="-476424899#9" to="-25541837#0" type="b__bus"/>
    <trip id="b_12" depart="600.00" from="89562672#0" to="-49850017#0" type="b__bus"/>
    <trip id="b_13" depart="650.00" from="-106545982#2" to="-106546024#0" type="b__bus"/>
    <trip id="b_14" depart="700.00" from="494611386#1" to="106550090#15" type="b__bus"/>
    <trip id="b_15" depart="750.00" from="41691152#0" to="288974454#9" type="b__bus"/>
    <trip id="b_16" depart="800.00" from="105159774#0" to="89562703#30" type="b__bus"/>
    <trip id="b_17" depart="850.00" from="-78828534#7" to="105232030#27" type="b__bus"/>
    <trip id="b_18" depart="900.00" from="44014594#1" to="106620701#2" type="b__bus"/>
    <trip id="b_19" depart="950.00" from="705955085#3" to="106545970#7" type="b__bus"/>
    <trip id="b_20" depart="1000.00" from="25630216#8" to="-105168427#6" type="b__bus"/>
    <trip id="b_21" depart="1050.00" from="-288974406#1" to="-41691147#14" type="b__bus"/>
    <trip id="b_22" depart="1100.00" from="-106545959#3" to="-33189690#12" type="b__bus"/>
    <trip id="b_23" depart="1150.00" from="-106546024#4" to="-400978937#5" type="b__bus"/>
    <trip id="b_24" depart="1200.00" from="1428541328" to="-78828534#4" type="b__bus"/>
    <trip id="b_25" depart="1250.00" from="-725476480#0" to="-288794737#1" type="b__bus"/>
    <trip id="b_26" depart="1300.00" from="-400978914#8" to="89562658#1" type="b__bus"/>
    <trip id="b_27" depart="1350.00" from="23173787" to="106550090#7" type="b__bus"/>
    <trip id="b_28" depart="1400.00" from="-25561499#28" to="288974454#8" type="b__bus"/>
    <trip id="b_29" depart="1450.00" from="-25561499#12" to="-78828539#9" type="b__bus"/>
    <trip id="b_30" depart="1500.00" from="902796264" to="23173789#12" type="b__bus"/>
    <trip id="b_31" depart="1550.00" from="105168446#7" to="25630215#0" type="b__bus"/>
    <trip id="b_32" depart="1600.00" from="476424900#1" to="400978929#6" type="b__bus"/>
    <trip id="b_33" depart="1650.00" from="-288974406#3" to="-105159774#4" type="b__bus"/>
    <trip id="b_34" depart="1700.00" from="-41691155#6" to="-400978926#0" type="b__bus"/>
    <trip id="b_35" depart="1750.00" from="-25630529#3" to="89562658#23" type="b__bus"/>
    <trip id="b_36" depart="1800.00" from="78828534#13" to="-419958542" type="b__bus"/>
    <trip id="b_37" depart="1850.00" from="23173789#5" to="-80444868#1" type="b__bus"/>
    <trip id="b_38" depart="1900.00" from="876288098#1" to="-89562703#26" type="b__bus"/>
    <trip id="b_39" depart="1950.00" from="-400978914#12" to="-376714133#5" type="b__bus"/>
    <trip id="b_40" depart="2000.00" from="105232027#4" to="-400978919#1" type="b__bus"/>
    <trip id="b_41" depart="2050.00" from="106545960#10" to="78828552#2" type="b__bus"/>
    <trip id="b_42" depart="2100.00" from="-78828551#4" to="-288974406#2" type="b__bus"/>
    <trip id="b_43" depart="2150.00" from="904673614#8" to="105159771#5" type="b__bus"/>
    <trip id="b_44" depart="2200.00" from="-106545970#9" to="-105168430#0" type="b__bus"/>
    <trip id="b_45" depart="2250.00" from="-106550079#1" to="1456785327" type="b__bus"/>
    <trip id="b_46" depart="2300.00" from="40989449#1" to="-89562654#1" type="b__bus"/>
    <trip id="b_47" depart="2350.00" from="-105232030#23" to="-78828544#6" type="b__bus"/>
    <trip id="b_48" depart="2400.00" from="904673614#5" to="105168427#17" type="b__bus"/>
    <trip id="b_49" depart="2450.00" from="89562703#22" to="711802514#5" type="b__bus"/>
    <trip id="b_50" depart="2500.00" from="-105159764#2" to="288974406#1" type="b__bus"/>
    <trip id="b_51" depart="2550.00" from="25561514#2" to="105168446#1" type="b__bus"/>
    <trip id="b_52" depart="2600.00" from="-400978914#8" to="23173789#14" type="b__bus"/>
    <trip id="b_53" depart="2650.00" from="-106550084" to="-89562658#9" type="b__bus"/>
    <trip id="b_54" depart="2700.00" from="-89562661#16" to="89562668" type="b__bus"/>
    <trip id="b_55" depart="2750.00" from="78828534#11" to="-400978921" type="b__bus"/>
    <trip id="b_56" depart="2800.00" from="-904673614#5" to="-25583275#3" type="b__bus"/>
    <trip id="b_57" depart="2850.00" from="80444869#7" to="78828534#2" type="b__bus"/>
    <trip id="b_58" depart="2900.00" from="-40989963#1" to="23173789#10" type="b__bus"/>
    <trip id="b_59" depart="2950.00" from="106550068#0" to="-23627726#2" type="b__bus"/>
    <trip id="b_60" depart="3000.00" from="376718512#8" to="105232027#0" type="b__bus"/>
    <trip id="b_61" depart="3050.00" from="400978926#0" to="105168427#21" type="b__bus"/>
    <trip id="b_62" depart="3100.00" from="-100834037#1" to="-476424898#6" type="b__bus"/>
    <trip id="b_63" depart="3150.00" from="-105159771#20" to="893735984" type="b__bus"/>
    <trip id="b_64" depart="3200.00" from="78828534#5" to="476424899#10" type="b__bus"/>
    <trip id="b_65" depart="3250.00" from="-41691149#8" to="-105232030#0" type="b__bus"/>
    <trip id="b_66" depart="3300.00" from="78828534#3" to="89562661#12" type="b__bus"/>
    <trip id="b_67" depart="3350.00" from="-106545970#0" to="100834037#0" type="b__bus"/>
    <trip id="b_68" depart="3400.00" from="-105232039" to="400978914#9" type="b__bus"/>
    <trip id="b_69" depart="3450.00" from="400978914#10" to="-1428527847" type="b__bus"/>
    <trip id="b_70" depart="3500.00" from="-89562703#22" to="105232030#2" type="b__bus"/>
    <trip id="b_71" depart="3550.00" from="-400978914#2" to="78828534#5" type="b__bus"/>
    <trip id="b_72" depart="3600.00" from="-88141674#1" to="-288794737#6" type="b__bus"/>
    <trip id="b_73" depart="3650.00" from="105159774#6" to="288974457#0" type="b__bus"/>
    <trip id="b_74" depart="3700.00" from="-25630218#0" to="-41691163#24" type="b__bus"/>
    <trip id="b_75" depart="3750.00" from="904673614#3" to="23173860#8" type="b__bus"/>
    <trip id="b_76" depart="3800.00" from="-89562655#0" to="105159774#0" type="b__bus"/>
    <trip id="b_77" depart="3850.00" from="-106550090#6" to="-288974454#2" type="b__bus"/>
    <trip id="b_78" depart="3900.00" from="-476424899#10" to="106546024#4" type="b__bus"/>
    <trip id="b_79" depart="3950.00" from="-288974406#5" to="-288974406#3" type="b__bus"/>
    <trip id="b_80" depart="4000.00" from="-105232041#0" to="191555412#1" type="b__bus"/>
    <trip id="b_81" depart="4050.00" from="-288974406#3" to="80444869#7" type="b__bus"/>
    <trip id="b_82" depart="4100.00" from="701022113" to="-105232041#2" type="b__bus"/>
    <trip id="b_83" depart="4150.00" from="-288974458#0" to="25561514#1" type="b__bus"/>
    <trip id="b_84" depart="4200.00" from="-283440274" to="-191555413#0" type="b__bus"/>
    <trip id="b_85" depart="4250.00" from="89562654#1" to="106545960#6" type="b__bus"/>
    <trip id="b_86" depart="4300.00" from="-89562703#16" to="40989449#1" type="b__bus"/>
    <trip id="b_87" depart="4350.00" from="41691152#0" to="-25630216#13" type="b__bus"/>
    <trip id="b_88" depart="4400.00" from="-106546019#1" to="-89562658#19" type="b__bus"/>
    <trip id="b_89" depart="4450.00" from="-88141674#2" to="-89562711#1" type="b__bus"/>
    <trip id="b_90" depart="4500.00" from="288839028#9" to="25583275#13" type="b__bus"/>
    <trip id="b_91" depart="4550.00" from="899914841#7" to="-106546024#4" type="b__bus"/>
    <trip id="b_92" depart="4600.00" from="-78828552#17" to="-49850018#2" type="b__bus"/>
    <trip id="b_93" depart="4650.00" from="705955085#3" to="-376718512#2" type="b__bus"/>
    <trip id="b_94" depart="4700.00" from="-25630213#4" to="-89562689#3" type="b__bus"/>
    <trip id="b_95" depart="4750.00" from="-88141673#2" to="-400978939" type="b__bus"/>
    <trip id="b_96" depart="4800.00" from="-33189690#7" to="88141691#0" type="b__bus"/>
    <trip id="b_97" depart="4850.00" from="-89562658#11" to="711802514#7" type="b__bus"/>
    <trip id="b_98" depart="4900.00" from="105168427#26" to="-105168446#7" type="b__bus"/>
    <trip id="b_99" depart="4950.00" from="931822795#1" to="476424900#2" type="b__bus"/>
    <trip id="b_100" depart="5000.00" from="89562703#17" to="88213886#0" type="b__bus"/>
    <trip id="b_101" depart="5050.00" from="494758078" to="-25561499#33" type="b__bus"/>
    <trip id="b_102" depart="5100.00" from="-89562711#2" to="-288839028#1" type="b__bus"/>
    <trip id="b_103" depart="5150.00" from="-78828552#13" to="-105232030#10" type="b__bus"/>
    <trip id="b_104" depart="5200.00" from="-78828534#8" to="902777247#4" type="b__bus"/>
    <trip id="b_105" depart="5250.00" from="-400978914#2" to="40989449#0" type="b__bus"/>
    <trip id="b_106" depart="5300.00" from="-89562661#19" to="-89562654#2" type="b__bus"/>
    <trip id="b_107" depart="5350.00" from="89562672#0" to="904673614#5" type="b__bus"/>
    <trip id="b_108" depart="5400.00" from="105168446#4" to="288839028#6" type="b__bus"/>
    <trip id="b_109" depart="5450.00" from="-23173860#0" to="-41691152#1" type="b__bus"/>
    <trip id="b_110" depart="5500.00" from="89562703#16" to="106545982#1" type="b__bus"/>
    <trip id="b_111" depart="5550.00" from="105168401#4" to="376714132" type="b__bus"/>
    <trip id="b_112" depart="5600.00" from="-105232027#6" to="106546019#1" type="b__bus"/>
    <trip id="b_113" depart="5650.00" from="-904673614#9" to="645739342#0" type="b__bus"/>
    <trip id="b_114" depart="5700.00" from="-23173860#5" to="89562689#4" type="b__bus"/>
    <trip id="b_115" depart="5750.00" from="-106545959#4" to="-25630215#0" type="b__bus"/>
    <trip id="b_116" depart="5800.00" from="106545982#0" to="25583275#18" type="b__bus"/>
    <trip id="b_117" depart="5850.00" from="-288974454#7" to="-106550095#8" type="b__bus"/>
    <trip id="b_118" depart="5900.00" from="78828539#35" to="-376714133#4" type="b__bus"/>
    <trip id="b_119" depart="5950.00" from="106545970#9" to="106620701#3" type="b__bus"/>
</routes>
