<?xml version="1.0" encoding="UTF-8"?>

<!-- generated on 2026-02-20 07:00:18.906283 by Eclipse SUMO randomTrips.py v1_25_0+0000-ac6c5a6752d
<configuration>
    <net-file value="osm.net.xml"/>
    <weights-prefix value="prob/prob"/>
    <output-trip-file value="trips/car_parking_busy.trips.xml"/>
    <prefix value="cp_busy_"/>
    <trip-attributes value="guiShape='passenger'"/>
    <vehicle-class value="passenger"/>
    <intermediate value="1"/>
    <end value="6000.0"/>
    <period value="5.0"/>
</configuration>
-->

<routes xmlns:xsi="http://www.w3.org/2001/XMLSchema-instance" xsi:noNamespaceSchemaLocation="http://sumo.dlr.de/xsd/routes_file.xsd">
    <vType id="cp_busy__passenger" vClass="passenger" guiShape='passenger'/>
    <trip id="cp_busy_0" depart="0.00" from="173522653#0" to="-400978923#0" via="-88141674#0"  type="cp_busy__passenger"/>
    <trip id="cp_busy_1" depart="5.00" from="-288780408#2" to="25561499#34" via="213545293.87"  type="cp_busy__passenger"/>
    <trip id="cp_busy_2" depart="10.00" from="78828539#22" to="-893379337#1" via="213545293.15"  type="cp_busy__passenger"/>
    <trip id="cp_busy_3" depart="15.00" from="-105159774#2" to="105159771#24" via="213545293.15"  type="cp_busy__passenger"/>
    <trip id="cp_busy_4" depart="20.00" from="-105159772#3" to="23173787" via="213545293.15"  type="cp_busy__passenger"/>
    <trip id="cp_busy_5" depart="25.00" from="105168427#24" to="106550078#2" via="213545293.15"  type="cp_busy__passenger"/>
    <trip id="cp_busy_6" depart="30.00" from="41691147#13" to="41691149#1" via="-106550090#17"  type="cp_busy__passenger"/>
    <trip id="cp_busy_7" depart="35.00" from="25583275#4" to="-23173789#5" via="213545293.15"  type="cp_busy__passenger"/>
    <trip id="cp_busy_8" depart="40.00" from="89562661#6" to="-106546024#2" via="213545293.15"  type="cp_busy__passenger"/>
    <trip id="cp_busy_9" depart="45.00" from="-106546033" to="106550095#1" via="213545293.87"  type="cp_busy__passenger"/>
    <trip id="cp_busy_10" depart="50.00" from="40989963#0" to="105232027#12" via="213545293.87"  type="cp_busy__passenger"/>
    <trip id="cp_busy_11" depart="55.00" from="89562703#23" to="105232040#1" via="213545293.71"  type="cp_busy__passenger"/>
    <trip id="cp_busy_12" depart="60.00" from="41691163#2" to="705955085#1" via="213545293.71"  type="cp_busy__passenger"/>
    <trip id="cp_busy_13" depart="65.00" from="106545960#1" to="-105168446#1" via="213545293.87"  type="cp_busy__passenger"/>
    <trip id="cp_busy_14" depart="70.00" from="-288794737#3" to="-106545970#10" via="213545293.15"  type="cp_busy__passenger"/>
    <trip id="cp_busy_15" depart="75.00" from="-288839028#3" to="-400978927#0" via="213545293.15"  type="cp_busy__passenger"/>
    <trip id="cp_busy_16" depart="80.00" from="1428541327" to="-78828534#7" via="213545293.71"  type="cp_busy__passenger"/>
    <trip id="cp_busy_17" depart="85.00" from="-25630216#8" to="89562655#2" via="213545293.15"  type="cp_busy__passenger"/>
    <trip id="cp_busy_18" depart="90.00" from="213545296#1" to="-25561499#24" via="213545293.71"  type="cp_busy__passenger"/>
    <trip id="cp_busy_19" depart="95.00" from="288794737#4" to="-78828539#30" via="213545293.15"  type="cp_busy__passenger"/>
    <trip id="cp_busy_20" depart="100.00" from="902777249#1" to="105232045#7" via="213545293.71"  type="cp_busy__passenger"/>
    <trip id="cp_busy_21" depart="105.00" from="25561499#29" to="400978917#9" via="213545293.87"  type="cp_busy__passenger"/>
    <trip id="cp_busy_22" depart="110.00" from="-288794737#6" to="-41691163#11" via="105168427#16"  type="cp_busy__passenger"/>
    <trip id="cp_busy_23" depart="115.00" from="-376718512#0" to="89562658#16" via="213545293.15"  type="cp_busy__passenger"/>
    <trip id="cp_busy_24" depart="120.00" from="715093627#1" to="23173789#19" via="213545293.15"  type="cp_busy__passenger"/>
    <trip id="cp_busy_25" depart="125.00" from="-78828544#1" to="-89562703#26" via="213545293.87"  type="cp_busy__passenger"/>
    <trip id="cp_busy_26" depart="130.00" from="-376714133#0" to="106545959#4" via="213545293.15"  type="cp_busy__passenger"/>
    <trip id="cp_busy_27" depart="135.00" from="-376714130#1" to="78828551#1" via="213545293.71"  type="cp_busy__passenger"/>
    <trip id="cp_busy_28" depart="140.00" from="-78828549#2" to="904673614#8" via="213545293.15"  type="cp_busy__passenger"/>
    <trip id="cp_busy_29" depart="145.00" from="105159760#6" to="-105168446#4" via="213545293.15"  type="cp_busy__passenger"/>
    <trip id="cp_busy_30" depart="150.00" from="-106550090#15" to="400978939" via="213545293.71"  type="cp_busy__passenger"/>
    <trip id="cp_busy_31" depart="155.00" from="-878571563" to="-78828539#5" via="213545293.15"  type="cp_busy__passenger"/>
    <trip id="cp_busy_32" depart="160.00" from="904673614#5" to="89562703#21" via="213545293.71"  type="cp_busy__passenger"/>
    <trip id="cp_busy_33" depart="165.00" from="49850019#2" to="288794737#2" via="-25630213#1"  type="cp_busy__passenger"/>
    <trip id="cp_busy_34" depart="170.00" from="25561499#23" to="-400978914#8" via="213545293.71"  type="cp_busy__passenger"/>
    <trip id="cp_busy_35" depart="175.00" from="191555413#0" to="-89562658#5" via="213545293.15"  type="cp_busy__passenger"/>
    <trip id="cp_busy_36" depart="180.00" from="-89562661#16" to="78828534#11" via="213545293.87"  type="cp_busy__passenger"/>
    <trip id="cp_busy_37" depart="185.00" from="-376714130#2" to="-25561514#0" via="213545293.71"  type="cp_busy__passenger"/>
    <trip id="cp_busy_38" depart="190.00" from="80444862" to="-41691147#17" via="213545293.87"  type="cp_busy__passenger"/>
    <trip id="cp_busy_39" depart="195.00" from="173522652#0" to="-23173789#14" via="213545293.71"  type="cp_busy__passenger"/>
    <trip id="cp_busy_40" depart="200.00" from="33189690#21" to="400978923#0" via="213545293.71"  type="cp_busy__passenger"/>
    <trip id="cp_busy_41" depart="205.00" from="105159772#5" to="-44014594#0" via="-105159761#1"  type="cp_busy__passenger"/>
    <trip id="cp_busy_42" depart="210.00" from="-105159771#23" to="78828534#5" via="213545293.87"  type="cp_busy__passenger"/>
    <trip id="cp_busy_43" depart="215.00" from="41691163#25" to="-105232030#17" via="213545293.15"  type="cp_busy__passenger"/>
    <trip id="cp_busy_44" depart="220.00" from="725476480#1" to="-106545982#3" via="213545293.87"  type="cp_busy__passenger"/>
    <trip id="cp_busy_45" depart="225.00" from="-899914841#3" to="376714133#0" via="213545293.15"  type="cp_busy__passenger"/>
    <trip id="cp_busy_46" depart="230.00" from="33189770" to="-904673614#10" via="213545293.15"  type="cp_busy__passenger"/>
    <trip id="cp_busy_47" depart="235.00" from="105168446#2" to="745826132#0" via="213545293.15"  type="cp_busy__passenger"/>
    <trip id="cp_busy_48" depart="240.00" from="-88141673#0" to="105232027#5" via="213545293.15"  type="cp_busy__passenger"/>
    <trip id="cp_busy_49" depart="245.00" from="288794737#6" to="-41691155#6" via="213545293.15"  type="cp_busy__passenger"/>
    <trip id="cp_busy_50" depart="250.00" from="904673614#3" to="-89562661#14" via="213545293.71"  type="cp_busy__passenger"/>
    <trip id="cp_busy_51" depart="255.00" from="105159771#1" to="-288974406#0" via="213545293.15"  type="cp_busy__passenger"/>
    <trip id="cp_busy_52" depart="260.00" from="-476424891#7" to="-288974415" via="213545293.71"  type="cp_busy__passenger"/>
    <trip id="cp_busy_53" depart="265.00" from="-25630529#6" to="173522653#0" via="213545293.15"  type="cp_busy__passenger"/>
    <trip id="cp_busy_54" depart="270.00" from="-288794737#6" to="560408615" via="213545293.87"  type="cp_busy__passenger"/>
    <trip id="cp_busy_55" depart="275.00" from="-105232045#6" to="25561499#16" via="213545293.15"  type="cp_busy__passenger"/>
    <trip id="cp_busy_56" depart="280.00" from="-25630529#13" to="89562654#4" via="213545293.15"  type="cp_busy__passenger"/>
    <trip id="cp_busy_57" depart="285.00" from="105232041#3" to="400978929#13" via="213545293.71"  type="cp_busy__passenger"/>
    <trip id="cp_busy_58" depart="290.00" from="40989963#1" to="-106550068#0" via="213545293.15"  type="cp_busy__passenger"/>
    <trip id="cp_busy_59" depart="295.00" from="-88141693#0" to="-899914841#0" via="213545293.71"  type="cp_busy__passenger"/>
    <trip id="cp_busy_60" depart="300.00" from="288794737#3" to="899914841#4" via="213545293.87"  type="cp_busy__passenger"/>
    <trip id="cp_busy_61" depart="305.00" from="-106546081#1" to="-494611378" via="213545293.71"  type="cp_busy__passenger"/>
    <trip id="cp_busy_62" depart="310.00" from="559446505#1" to="-25630213#1" via="213545293.15"  type="cp_busy__passenger"/>
    <trip id="cp_busy_63" depart="315.00" from="-89562658#23" to="-400978927#1" via="213545293.71"  type="cp_busy__passenger"/>
    <trip id="cp_busy_64" depart="320.00" from="-289548195" to="-89562661#9" via="213545293.87"  type="cp_busy__passenger"/>
    <trip id="cp_busy_65" depart="325.00" from="53505126" to="-105232027#14" via="213545293.71"  type="cp_busy__passenger"/>
    <trip id="cp_busy_66" depart="330.00" from="931822795#1" to="89562703#13" via="213545293.87"  type="cp_busy__passenger"/>
    <trip id="cp_busy_67" depart="335.00" from="88141674#0" to="-25561499#12" via="213545293.87"  type="cp_busy__passenger"/>
    <trip id="cp_busy_68" depart="340.00" from="-899914841#10" to="-80444869#6" via="213545293.15"  type="cp_busy__passenger"/>
    <trip id="cp_busy_69" depart="345.00" from="-105232030#17" to="902777247#2" via="213545293.71"  type="cp_busy__passenger"/>
    <trip id="cp_busy_70" depart="350.00" from="-376714133#1" to="-89562703#16" via="213545293.87"  type="cp_busy__passenger"/>
    <trip id="cp_busy_71" depart="355.00" from="-88141673#0" to="904673614#4" via="213545293.87"  type="cp_busy__passenger"/>
    <trip id="cp_busy_72" depart="360.00" from="105232027#4" to="-23173789#4" via="213545293.87"  type="cp_busy__passenger"/>
    <trip id="cp_busy_73" depart="365.00" from="-400978937#3" to="106546023" via="213545293.87"  type="cp_busy__passenger"/>
    <trip id="cp_busy_74" depart="370.00" from="105168427#17" to="-105232030#16" via="213545293.87"  type="cp_busy__passenger"/>
    <trip id="cp_busy_75" depart="375.00" from="106545970#2" to="49850018#2" via="213545293.71"  type="cp_busy__passenger"/>
    <trip id="cp_busy_76" depart="380.00" from="-225682975#1" to="-106545970#12" via="213545293.87"  type="cp_busy__passenger"/>
    <trip id="cp_busy_77" depart="385.00" from="-25561499#6" to="25561499#30" via="213545293.71"  type="cp_busy__passenger"/>
    <trip id="cp_busy_78" depart="390.00" from="-288839029" to="78828539#36" via="213545293.15"  type="cp_busy__passenger"/>
    <trip id="cp_busy_79" depart="395.00" from="-288974457#0" to="1416317269#3" via="213545293.71"  type="cp_busy__passenger"/>
    <trip id="cp_busy_80" depart="400.00" from="-878249329#2" to="105168427#0" via="213545293.71"  type="cp_busy__passenger"/>
    <trip id="cp_busy_81" depart="405.00" from="88213886#1" to="283440274" via="213545293.15"  type="cp_busy__passenger"/>
    <trip id="cp_busy_82" depart="410.00" from="-288974418" to="25561499#22" via="213545293.71"  type="cp_busy__passenger"/>
    <trip id="cp_busy_83" depart="415.00" from="-40989446" to="33189690#17" via="213545293.15"  type="cp_busy__passenger"/>
    <trip id="cp_busy_84" depart="420.00" from="-105232048" to="931822795#0" via="213545293.71"  type="cp_busy__passenger"/>
    <trip id="cp_busy_85" depart="425.00" from="904673614#5" to="-26921982#2" via="213545293.15"  type="cp_busy__passenger"/>
    <trip id="cp_busy_86" depart="430.00" from="-376714133#1" to="78828539#1" via="213545293.87"  type="cp_busy__passenger"/>
    <trip id="cp_busy_87" depart="435.00" from="745826132#1" to="-23173860#2" via="213545293.71"  type="cp_busy__passenger"/>
    <trip id="cp_busy_88" depart="440.00" from="41691163#9" to="1115580105" via="213545293.87"  type="cp_busy__passenger"/>
    <trip id="cp_busy_89" depart="445.00" from="902777248#0" to="-105159760#6" via="213545293.71"  type="cp_busy__passenger"/>
    <trip id="cp_busy_90" depart="450.00" from="41691152#1" to="23627726#1" via="213545293.15"  type="cp_busy__passenger"/>
    <trip id="cp_busy_91" depart="455.00" from="89562654#1" to="-106620701#0" via="213545293.15"  type="cp_busy__passenger"/>
    <trip id="cp_busy_92" depart="460.00" from="-106550086" to="-400978919#1" via="213545293.71"  type="cp_busy__passenger"/>
    <trip id="cp_busy_93" depart="465.00" from="106550082" to="-25630529#10" via="213545293.87"  type="cp_busy__passenger"/>
    <trip id="cp_busy_94" depart="470.00" from="1416317677" to="105159760#11" via="213545293.15"  type="cp_busy__passenger"/>
    <trip id="cp_busy_95" depart="475.00" from="78828551#3" to="-106546024#1" via="213545293.87"  type="cp_busy__passenger"/>
    <trip id="cp_busy_96" depart="480.00" from="-88141673#2" to="-105159760#1" via="213545293.15"  type="cp_busy__passenger"/>
    <trip id="cp_busy_97" depart="485.00" from="376714133#5" to="-400978913#4" via="213545293.71"  type="cp_busy__passenger"/>
    <trip id="cp_busy_98" depart="490.00" from="288974411" to="-89562658#0" via="213545293.71"  type="cp_busy__passenger"/>
    <trip id="cp_busy_99" depart="495.00" from="-105159761#2" to="78828539#16" via="213545293.15"  type="cp_busy__passenger"/>
    <trip id="cp_busy_100" depart="500.00" from="78828551#0" to="476424897" via="213545293.71"  type="cp_busy__passenger"/>
    <trip id="cp_busy_101" depart="505.00" from="106545970#1" to="-1416317269#6" via="213545293.15"  type="cp_busy__passenger"/>
    <trip id="cp_busy_102" depart="510.00" from="-41691147#11" to="40989953#2" via="213545293.87"  type="cp_busy__passenger"/>
    <trip id="cp_busy_103" depart="515.00" from="49850019#2" to="-25630529#25" via="213545293.87"  type="cp_busy__passenger"/>
    <trip id="cp_busy_104" depart="520.00" from="-288974460#3" to="400978924#1" via="213545293.15"  type="cp_busy__passenger"/>
    <trip id="cp_busy_105" depart="525.00" from="78828534#3" to="1416317269#6" via="213545293.71"  type="cp_busy__passenger"/>
    <trip id="cp_busy_106" depart="530.00" from="-213545296#9" to="711802514#0" via="213545293.87"  type="cp_busy__passenger"/>
    <trip id="cp_busy_107" depart="535.00" from="89562703#32" to="78828539#11" via="213545293.87"  type="cp_busy__passenger"/>
    <trip id="cp_busy_108" depart="540.00" from="-105159772#16" to="-476424899#0" via="213545293.87"  type="cp_busy__passenger"/>
    <trip id="cp_busy_109" depart="545.00" from="88141687#3" to="710509165" via="213545293.87"  type="cp_busy__passenger"/>
    <trip id="cp_busy_110" depart="550.00" from="41691147#18" to="400978930" via="213545293.15"  type="cp_busy__passenger"/>
    <trip id="cp_busy_111" depart="555.00" from="-106550090#0" to="560408571#1" via="213545293.87"  type="cp_busy__passenger"/>
    <trip id="cp_busy_112" depart="560.00" from="-26921982#2" to="-89562703#30" via="213545293.87"  type="cp_busy__passenger"/>
    <trip id="cp_busy_113" depart="565.00" from="-40989954#3" to="-288974406#6" via="213545293.87"  type="cp_busy__passenger"/>
    <trip id="cp_busy_114" depart="570.00" from="-105159772#13" to="-476424898#0" via="213545293.15"  type="cp_busy__passenger"/>
    <trip id="cp_busy_115" depart="575.00" from="560408571#0" to="-400978927#4" via="213545293.87"  type="cp_busy__passenger"/>
    <trip id="cp_busy_116" depart="580.00" from="191555413#1" to="89562711#1" via="213545293.71"  type="cp_busy__passenger"/>
    <trip id="cp_busy_117" depart="585.00" from="105168401#0" to="-106620701#0" via="213545293.87"  type="cp_busy__passenger"/>
    <trip id="cp_busy_118" depart="590.00" from="89562703#16" to="89562689#3" via="213545293.15"  type="cp_busy__passenger"/>
    <trip id="cp_busy_119" depart="595.00" from="-376714133#1" to="-89562658#5" via="213545293.15"  type="cp_busy__passenger"/>
    <trip id="cp_busy_120" depart="600.00" from="288794737#2" to="106550095#8" via="213545293.15"  type="cp_busy__passenger"/>
    <trip id="cp_busy_121" depart="605.00" from="105159761#2" to="106546019#0" via="213545293.71"  type="cp_busy__passenger"/>
    <trip id="cp_busy_122" depart="610.00" from="-33189690#13" to="-100834037#3" via="213545293.87"  type="cp_busy__passenger"/>
    <trip id="cp_busy_123" depart="615.00" from="88141673#0" to="288780411#2" via="213545293.71"  type="cp_busy__passenger"/>
    <trip id="cp_busy_124" depart="620.00" from="288974415" to="-745826132#1" via="213545293.87"  type="cp_busy__passenger"/>
    <trip id="cp_busy_125" depart="625.00" from="-105232045#4" to="-476424898#3" via="213545293.71"  type="cp_busy__passenger"/>
    <trip id="cp_busy_126" depart="630.00" from="-41691149#4" to="288780411#2" via="213545293.87"  type="cp_busy__passenger"/>
    <trip id="cp_busy_127" depart="635.00" from="-40989446" to="-878249329#6" via="213545293.15"  type="cp_busy__passenger"/>
    <trip id="cp_busy_128" depart="640.00" from="-78828551#4" to="-1416317269#6" via="213545293.15"  type="cp_busy__passenger"/>
    <trip id="cp_busy_129" depart="645.00" from="-878249329#6" to="25561499#4" via="213545293.87"  type="cp_busy__passenger"/>
    <trip id="cp_busy_130" depart="650.00" from="78828549#2" to="-41691149#1" via="213545293.71"  type="cp_busy__passenger"/>
    <trip id="cp_busy_131" depart="655.00" from="105168430#0" to="-400978937#4" via="-105159760#17"  type="cp_busy__passenger"/>
    <trip id="cp_busy_132" depart="660.00" from="-88141691#0" to="23173789#17" via="213545293.71"  type="cp_busy__passenger"/>
    <trip id="cp_busy_133" depart="665.00" from="-89562689#3" to="-283440274" via="213545293.71"  type="cp_busy__passenger"/>
    <trip id="cp_busy_134" depart="670.00" from="-89562703#20" to="40989953#1" via="213545293.87"  type="cp_busy__passenger"/>
    <trip id="cp_busy_135" depart="675.00" from="-23173860#7" to="105159774#2" via="213545293.15"  type="cp_busy__passenger"/>
    <trip id="cp_busy_136" depart="680.00" from="1416317676#0" to="41691157#3" via="213545293.15"  type="cp_busy__passenger"/>
    <trip id="cp_busy_137" depart="685.00" from="288974456#2" to="-288974406#0" via="213545293.87"  type="cp_busy__passenger"/>
    <trip id="cp_busy_138" depart="690.00" from="-25630213#3" to="-33189690#13" via="-80444869#7"  type="cp_busy__passenger"/>
    <trip id="cp_busy_139" depart="695.00" from="-89562703#24" to="-106545959#2" via="213545293.87"  type="cp_busy__passenger"/>
    <trip id="cp_busy_140" depart="700.00" from="-80733949#1" to="-25630215#1" via="213545293.71"  type="cp_busy__passenger"/>
    <trip id="cp_busy_141" depart="705.00" from="25583275#2" to="-33189690#10" via="213545293.71"  type="cp_busy__passenger"/>
    <trip id="cp_busy_142" depart="710.00" from="225682971#1" to="33189690#14" via="-106546019#0"  type="cp_busy__passenger"/>
    <trip id="cp_busy_143" depart="715.00" from="376714133#3" to="-89562655#0" via="213545293.15"  type="cp_busy__passenger"/>
    <trip id="cp_busy_144" depart="720.00" from="-25561499#15" to="105159774#8" via="213545293.87"  type="cp_busy__passenger"/>
    <trip id="cp_busy_145" depart="725.00" from="-105232027#11" to="494611386#2" via="213545293.15"  type="cp_busy__passenger"/>
    <trip id="cp_busy_146" depart="730.00" from="-89562661#4" to="25561499#12" via="213545293.87"  type="cp_busy__passenger"/>
    <trip id="cp_busy_147" depart="735.00" from="902777248#1" to="89562661#14" via="213545293.71"  type="cp_busy__passenger"/>
    <trip id="cp_busy_148" depart="740.00" from="78828539#21" to="288780411#1" via="213545293.71"  type="cp_busy__passenger"/>
    <trip id="cp_busy_149" depart="745.00" from="100834037#5" to="105232030#29" via="213545293.87"  type="cp_busy__passenger"/>
    <trip id="cp_busy_150" depart="750.00" from="78828539#5" to="-902796264" via="213545293.87"  type="cp_busy__passenger"/>
    <trip id="cp_busy_151" depart="755.00" from="-33189690#5" to="213545289#2" via="213545293.15"  type="cp_busy__passenger"/>
    <trip id="cp_busy_152" depart="760.00" from="33189770" to="1428527847" via="213545293.71"  type="cp_busy__passenger"/>
    <trip id="cp_busy_153" depart="765.00" from="-400978914#12" to="-400978937#2" via="213545293.15"  type="cp_busy__passenger"/>
    <trip id="cp_busy_154" depart="770.00" from="-400978913#2" to="105232027#7" via="213545293.15"  type="cp_busy__passenger"/>
    <trip id="cp_busy_155" depart="775.00" from="-1416317676#2" to="25630213#9" via="213545293.15"  type="cp_busy__passenger"/>
    <trip id="cp_busy_156" depart="780.00" from="25630215#3" to="-878249329#3" via="213545293.15"  type="cp_busy__passenger"/>
    <trip id="cp_busy_157" depart="785.00" from="105168427#18" to="-25630529#18" via="213545293.71"  type="cp_busy__passenger"/>
    <trip id="cp_busy_158" depart="790.00" from="-878249329#4" to="106546081#0" via="213545293.87"  type="cp_busy__passenger"/>
    <trip id="cp_busy_159" depart="795.00" from="25583275#17" to="376718512#4" via="213545293.87"  type="cp_busy__passenger"/>
    <trip id="cp_busy_160" depart="800.00" from="-78828534#2" to="-560408571#1" via="-106546033"  type="cp_busy__passenger"/>
    <trip id="cp_busy_161" depart="805.00" from="288974460#0" to="89562661#4" via="213545293.87"  type="cp_busy__passenger"/>
    <trip id="cp_busy_162" depart="810.00" from="-878249329#2" to="105232030#24" via="213545293.87"  type="cp_busy__passenger"/>
    <trip id="cp_busy_163" depart="815.00" from="106550078#2" to="-288794788#1" via="213545293.15"  type="cp_busy__passenger"/>
    <trip id="cp_busy_164" depart="820.00" from="-893735984" to="-476424900#1" via="-904673614#0"  type="cp_busy__passenger"/>
    <trip id="cp_busy_165" depart="825.00" from="25561499#18" to="-25541837#0" via="213545293.71"  type="cp_busy__passenger"/>
    <trip id="cp_busy_166" depart="830.00" from="-89562694" to="1416317674" via="213545293.15"  type="cp_busy__passenger"/>
    <trip id="cp_busy_167" depart="835.00" from="-105159772#4" to="106545960#5" via="213545293.71"  type="cp_busy__passenger"/>
    <trip id="cp_busy_168" depart="840.00" from="-105159772#5" to="-213545270#0" via="213545293.71"  type="cp_busy__passenger"/>
    <trip id="cp_busy_169" depart="845.00" from="-89562675#2" to="-78828539#28" via="213545293.15"  type="cp_busy__passenger"/>
    <trip id="cp_busy_170" depart="850.00" from="-25630529#0" to="376714133#2" via="213545293.15"  type="cp_busy__passenger"/>
    <trip id="cp_busy_171" depart="855.00" from="-78828534#13" to="476424891#4" via="213545293.87"  type="cp_busy__passenger"/>
    <trip id="cp_busy_172" depart="860.00" from="-33189593#0" to="-105159771#24" via="213545293.15"  type="cp_busy__passenger"/>
    <trip id="cp_busy_173" depart="865.00" from="105168427#0" to="-560408569#1" via="931822795#0"  type="cp_busy__passenger"/>
    <trip id="cp_busy_174" depart="870.00" from="213545296#3" to="23173789#10" via="213545293.87"  type="cp_busy__passenger"/>
    <trip id="cp_busy_175" depart="875.00" from="288974460#2" to="-25630216#3" via="213545293.87"  type="cp_busy__passenger"/>
    <trip id="cp_busy_176" depart="880.00" from="-105159771#4" to="-1416317269#3" via="213545293.15"  type="cp_busy__passenger"/>
    <trip id="cp_busy_177" depart="885.00" from="23173860#5" to="-288794737#4" via="213545293.71"  type="cp_busy__passenger"/>
    <trip id="cp_busy_178" depart="890.00" from="25583275#6" to="-25561499#16" via="213545293.87"  type="cp_busy__passenger"/>
    <trip id="cp_busy_179" depart="895.00" from="106550090#15" to="-106620686#0" via="213545293.87"  type="cp_busy__passenger"/>
    <trip id="cp_busy_180" depart="900.00" from="41691152#2" to="-106550090#3" via="213545293.87"  type="cp_busy__passenger"/>
    <trip id="cp_busy_181" depart="905.00" from="-105159772#19" to="25561499#4" via="213545293.15"  type="cp_busy__passenger"/>
    <trip id="cp_busy_182" depart="910.00" from="89562661#9" to="27163017" via="213545293.71"  type="cp_busy__passenger"/>
    <trip id="cp_busy_183" depart="915.00" from="-106545959#4" to="1428541327" via="213545293.87"  type="cp_busy__passenger"/>
    <trip id="cp_busy_184" depart="920.00" from="-106550073" to="49840960#2" via="213545293.87"  type="cp_busy__passenger"/>
    <trip id="cp_busy_185" depart="925.00" from="106546085" to="899914841#4" via="213545293.15"  type="cp_busy__passenger"/>
    <trip id="cp_busy_186" depart="930.00" from="400978917#4" to="-89562658#1" via="213545293.15"  type="cp_busy__passenger"/>
    <trip id="cp_busy_187" depart="935.00" from="-711802514#2" to="-494758078" via="213545293.71"  type="cp_busy__passenger"/>
    <trip id="cp_busy_188" depart="940.00" from="476424900#0" to="-106550090#2" via="213545293.87"  type="cp_busy__passenger"/>
    <trip id="cp_busy_189" depart="945.00" from="89562675#1" to="419958546#1" via="213545293.71"  type="cp_busy__passenger"/>
    <trip id="cp_busy_190" depart="950.00" from="25630216#1" to="288974437#1" via="213545293.71"  type="cp_busy__passenger"/>
    <trip id="cp_busy_191" depart="955.00" from="89562689#5" to="41691149#7" via="213545293.15"  type="cp_busy__passenger"/>
    <trip id="cp_busy_192" depart="960.00" from="105168401#5" to="-89562658#9" via="213545293.71"  type="cp_busy__passenger"/>
    <trip id="cp_busy_193" depart="965.00" from="288794788#1" to="49850017#8" via="213545293.15"  type="cp_busy__passenger"/>
    <trip id="cp_busy_194" depart="970.00" from="41691163#23" to="78828539#12" via="213545293.15"  type="cp_busy__passenger"/>
    <trip id="cp_busy_195" depart="975.00" from="-288974456#0" to="106620701#3" via="213545293.71"  type="cp_busy__passenger"/>
    <trip id="cp_busy_196" depart="980.00" from="-78828534#11" to="49850017#1" via="-899914841#8"  type="cp_busy__passenger"/>
    <trip id="cp_busy_197" depart="985.00" from="-25561499#28" to="40989954#0" via="213545293.15"  type="cp_busy__passenger"/>
    <trip id="cp_busy_198" depart="990.00" from="-476424898#2" to="25630216#4" via="213545293.87"  type="cp_busy__passenger"/>
    <trip id="cp_busy_199" depart="995.00" from="-400978914#6" to="89562661#1" via="-25561499#21"  type="cp_busy__passenger"/>
    <trip id="cp_busy_200" depart="1000.00" from="-106545970#8" to="105159760#11" via="213545293.87"  type="cp_busy__passenger"/>
    <trip id="cp_busy_201" depart="1005.00" from="33189690#12" to="213545298#1" via="213545293.87"  type="cp_busy__passenger"/>
    <trip id="cp_busy_202" depart="1010.00" from="-902777248#3" to="-106546024#4" via="213545293.87"  type="cp_busy__passenger"/>
    <trip id="cp_busy_203" depart="1015.00" from="-25676052#1" to="-41691152#12" via="213545293.87"  type="cp_busy__passenger"/>
    <trip id="cp_busy_204" depart="1020.00" from="106545960#9" to="105168430#0" via="213545293.71"  type="cp_busy__passenger"/>
    <trip id="cp_busy_205" depart="1025.00" from="-88141675" to="-476424898#6" via="213545293.87"  type="cp_busy__passenger"/>
    <trip id="cp_busy_206" depart="1030.00" from="25630213#7" to="-33189690#9" via="213545293.15"  type="cp_busy__passenger"/>
    <trip id="cp_busy_207" depart="1035.00" from="-106550095#9" to="-128252747#3" via="213545293.15"  type="cp_busy__passenger"/>
    <trip id="cp_busy_208" depart="1040.00" from="105159774#8" to="-25583275#18" via="213545293.87"  type="cp_busy__passenger"/>
    <trip id="cp_busy_209" depart="1045.00" from="-25630529#2" to="288839028#10" via="213545293.71"  type="cp_busy__passenger"/>
    <trip id="cp_busy_210" depart="1050.00" from="89562703#33" to="-400978929#6" via="213545293.71"  type="cp_busy__passenger"/>
    <trip id="cp_busy_211" depart="1055.00" from="-106550068#0" to="-288974406#5" via="213545293.15"  type="cp_busy__passenger"/>
    <trip id="cp_busy_212" depart="1060.00" from="-25561499#23" to="105168446#6" via="-288974456#0"  type="cp_busy__passenger"/>
    <trip id="cp_busy_213" depart="1065.00" from="-400978914#11" to="105232041#2" via="213545293.87"  type="cp_busy__passenger"/>
    <trip id="cp_busy_214" depart="1070.00" from="25583275#22" to="711802514#7" via="213545293.15"  type="cp_busy__passenger"/>
    <trip id="cp_busy_215" depart="1075.00" from="-902777248#3" to="106545982#4" via="213545293.87"  type="cp_busy__passenger"/>
    <trip id="cp_busy_216" depart="1080.00" from="-89562701#1" to="-25583275#17" via="213545293.71"  type="cp_busy__passenger"/>
    <trip id="cp_busy_217" depart="1085.00" from="-105232027#14" to="-904673614#15" via="213545293.87"  type="cp_busy__passenger"/>
    <trip id="cp_busy_218" depart="1090.00" from="41691155#2" to="-106545960#0" via="213545293.71"  type="cp_busy__passenger"/>
    <trip id="cp_busy_219" depart="1095.00" from="1416317269#3" to="-23173785#1" via="213545293.15"  type="cp_busy__passenger"/>
    <trip id="cp_busy_220" depart="1100.00" from="105232030#23" to="904673614#19" via="213545293.15"  type="cp_busy__passenger"/>
    <trip id="cp_busy_221" depart="1105.00" from="-106550095#2" to="106550095#8" via="213545293.87"  type="cp_busy__passenger"/>
    <trip id="cp_busy_222" depart="1110.00" from="400978927#3" to="105168427#0" via="213545293.15"  type="cp_busy__passenger"/>
    <trip id="cp_busy_223" depart="1115.00" from="-89562658#9" to="645739342#0" via="213545293.71"  type="cp_busy__passenger"/>
    <trip id="cp_busy_224" depart="1120.00" from="902796264" to="1416317269#6" via="213545293.15"  type="cp_busy__passenger"/>
    <trip id="cp_busy_225" depart="1125.00" from="106550090#2" to="89562658#9" via="213545293.87"  type="cp_busy__passenger"/>
    <trip id="cp_busy_226" depart="1130.00" from="-25630216#3" to="23173860#4" via="213545293.15"  type="cp_busy__passenger"/>
    <trip id="cp_busy_227" depart="1135.00" from="-225682971#1" to="-106545960#10" via="213545293.15"  type="cp_busy__passenger"/>
    <trip id="cp_busy_228" depart="1140.00" from="-100834037#5" to="106550090#0" via="213545293.71"  type="cp_busy__passenger"/>
    <trip id="cp_busy_229" depart="1145.00" from="-400978929#16" to="25630529#14" via="213545293.15"  type="cp_busy__passenger"/>