<?xml version="1.0" encoding="UTF-8"?>

<!-- generated on 2026-02-20 07:00:22.363143 by Eclipse SUMO randomTrips.py v1_25_0+0000-ac6c5a6752d
<configuration>
    <net-file value="osm.net.xml"/>
    <weights-prefix value="prob/prob"/>
    <output-trip-file value="trips/car_parking_quiet.trips.xml"/>
    <prefix value="cp_quiet_"/>
    <trip-attributes value="guiShape='passenger'"/>
    <vehicle-class value="passenger"/>
    <intermediate value="1"/>
    <end value="6000.0"/>
    <period value="15.0"/>
</configuration>
-->

<routes xmlns:xsi="http://www.w3.org/2001/XMLSchema-instance" xsi:noNamespaceSchemaLocation="http://sumo.dlr.de/xsd/routes_file.xsd">
    <vType id="cp_quiet__passenger" vClass="passenger" guiShape='passenger'/>
    <trip id="cp_quiet_0" depart="0.00" from="173522653#0" to="-400978923#0" via="-88141674#0"  type="cp_quiet__passenger"/>
    <trip id="cp_quiet_1" depart="15.00" from="-288780408#2" to="25561499#34" via="213545293.87"  type="cp_quiet__passenger"/>
    <trip id="cp_quiet_2" depart="30.00" from="78828539#22" to="-893379337#1" via="213545293.15"  type="cp_quiet__passenger"/>
    <trip id="cp_quiet_3" depart="45.00" from="-105159774#2" to="105159771#24" via="213545293.15"  type="cp_quiet__passenger"/>
    <trip id="cp_quiet_4" depart="60.00" from="-105159772#3" to="23173787" via="213545293.15"  type="cp_quiet__passenger"/>
    <trip id="cp_quiet_5" depart="75.00" from="105168427#24" to="106550078#2" via="213545293.15"  type="cp_quiet__passenger"/>
    <trip id="cp_quiet_6" depart="90.00" from="41691147#13" to="41691149#1" via="-106550090#17"  type="cp_quiet__passenger"/>
    <trip id="cp_quiet_7" depart="105.00" from="25583275#4" to="-23173789#5" via="213545293.15"  type="cp_quiet__passenger"/>
    <trip id="cp_quiet_8" depart="120.00" from="89562661#6" to="-106546024#2" via="213545293.15"  type="cp_quiet__passenger"/>
    <trip id="cp_quiet_9" depart="135.00" from="-106546033" to="106550095#1" via="213545293.87"  type="cp_quiet__passenger"/>
    <trip id="cp_quiet_10" depart="150.00" from="40989963#0" to="105232027#12" via="213545293.87"  type="cp_quiet__passenger"/>
    <trip id="cp_quiet_11" depart="165.00" from="89562703#23" to="105232040#1" via="213545293.71"  type="cp_quiet__passenger"/>
    <trip id="cp_quiet_12" depart="180.00" from="41691163#2" to="705955085#1" via="213545293.71"  type="cp_quiet__passenger"/>
    <trip id="cp_quiet_13" depart="195.00" from="106545960#1" to="-105168446#1" via="213545293.87"  type="cp_quiet__passenger"/>
    <trip id="cp_quiet_14" depart="210.00" from="-288794737#3" to="-106545970#10" via="213545293.15"  type="cp_quiet__passenger"/>
    <trip id="cp_quiet_15" depart="225.00" from="-288839028#3" to="-400978927#0" via="213545293.15"  type="cp_quiet__passenger"/>
    <trip id="cp_quiet_16" depart="240.00" from="1428541327" to="-78828534#7" via="213545293.71"  type="cp_quiet__passenger"/>
    <trip id="cp_quiet_17" depart="255.00" from="-25630216#8" to="89562655#2" via="213545293.15"  type="cp_quiet__passenger"/>
    <trip id="cp_quiet_18" depart="270.00" from="213545296#1" to="-25561499#24" via="213545293.71"  type="cp_quiet__passenger"/>
    <trip id="cp_quiet_19" depart="285.00" from="288794737#4" to="-78828539#30" via="213545293.15"  type="cp_quiet__passenger"/>
    <trip id="cp_quiet_20" depart="300.00" from="902777249#1" to="105232045#7" via="213545293.71"  type="cp_quiet__passenger"/>
    <trip id="cp_quiet_21" depart="315.00" from="25561499#29" to="400978917#9" via="213545293.87"  type="cp_quiet__passenger"/>
    <trip id="cp_quiet_22" depart="330.00" from="-288794737#6" to="-41691163#11" via="105168427#16"  type="cp_quiet__passenger"/>
    <trip id="cp_quiet_23" depart="345.00" from="-376718512#0" to="89562658#16" via="213545293.15"  type="cp_quiet__passenger"/>
    <trip id="cp_quiet_24" depart="360.00" from="715093627#1" to="23173789#19" via="213545293.15"  type="cp_quiet__passenger"/>
    <trip id="cp_quiet_25" depart="375.00" from="-78828544#1" to="-89562703#26" via="213545293.87"  type="cp_quiet__passenger"/>
    <trip id="cp_quiet_26" depart="390.00" from="-376714133#0" to="106545959#4" via="213545293.15"  type="cp_quiet__passenger"/>
    <trip id="cp_quiet_27" depart="405.00" from="-376714130#1" to="78828551#1" via="213545293.71"  type="cp_quiet__passenger"/>
    <trip id="cp_quiet_28" depart="420.00" from="-78828549#2" to="904673614#8" via="213545293.15"  type="cp_quiet__passenger"/>
    <trip id="cp_quiet_29" depart="435.00" from="105159760#6" to="-105168446#4" via="213545293.15"  type="cp_quiet__passenger"/>
    <trip id="cp_quiet_30" depart="450.00" from="-106550090#15" to="400978939" via="213545293.71"  type="cp_quiet__passenger"/>
    <trip id="cp_quiet_31" depart="465.00" from="-878571563" to="-78828539#5" via="213545293.15"  type="cp_quiet__passenger"/>
    <trip id="cp_quiet_32" depart="480.00" from="904673614#5" to="89562703#21" via="213545293.71"  type="cp_quiet__passenger"/>
    <trip id="cp_quiet_33" depart="495.00" from="49850019#2" to="288794737#2" via="-25630213#1"  type="cp_quiet__passenger"/>
    <trip id="cp_quiet_34" depart="510.00" from="25561499#23" to="-400978914#8" via="213545293.71"  type="cp_quiet__passenger"/>
    <trip id="cp_quiet_35" depart="525.00" from="191555413#0" to="-89562658#5" via="213545293.15"  type="cp_quiet__passenger"/>
    <trip id="cp_quiet_36" depart="540.00" from="-89562661#16" to="78828534#11" via="213545293.87"  type="cp_quiet__passenger"/>
    <trip id="cp_quiet_37" depart="555.00" from="-376714130#2" to="-25561514#0" via="213545293.71"  type="cp_quiet__passenger"/>
    <trip id="cp_quiet_38" depart="570.00" from="80444862" to="-41691147#17" via="213545293.87"  type="cp_quiet__passenger"/>
    <trip id="cp_quiet_39" depart="585.00" from="173522652#0" to="-23173789#14" via="213545293.71"  type="cp_quiet__passenger"/>
    <trip id="cp_quiet_40" depart="600.00" from="33189690#21" to="400978923#0" via="213545293.71"  type="cp_quiet__passenger"/>
    <trip id="cp_quiet_41" depart="615.00" from="105159772#5" to="-44014594#0" via="-105159761#1"  type="cp_quiet__passenger"/>
    <trip id="cp_quiet_42" depart="630.00" from="-105159771#23" to="78828534#5" via="213545293.87"  type="cp_quiet__passenger"/>
    <trip id="cp_quiet_43" depart="645.00" from="41691163#25" to="-105232030#17" via="213545293.15"  type="cp_quiet__passenger"/>
    <trip id="cp_quiet_44" depart="660.00" from="725476480#1" to="-106545982#3" via="213545293.87"  type="cp_quiet__passenger"/>
    <trip id="cp_quiet_45" depart="675.00" from="-899914841#3" to="376714133#0" via="213545293.15"  type="cp_quiet__passenger"/>
    <trip id="cp_quiet_46" depart="690.00" from="33189770" to="-904673614#10" via="213545293.15"  type="cp_quiet__passenger"/>
    <trip id="cp_quiet_47" depart="705.00" from="105168446#2" to="745826132#0" via="213545293.15"  type="cp_quiet__passenger"/>
    <trip id="cp_quiet_48" depart="720.00" from="-88141673#0" to="105232027#5" via="213545293.15"  type="cp_quiet__passenger"/>
    <trip id="cp_quiet_49" depart="735.00" from="288794737#6" to="-41691155#6" via="213545293.15"  type="cp_quiet__passenger"/>
    <trip id="cp_quiet_50" depart="750.00" from="904673614#3" to="-89562661#14" via="213545293.71"  type="cp_quiet__passenger"/>
    <trip id="cp_quiet_51" depart="765.00" from="105159771#1" to="-288974406#0" via="213545293.15"  type="cp_quiet__passenger"/>
    <trip id="cp_quiet_52" depart="780.00" from="-476424891#7" to="-288974415" via="213545293.71"  type="cp_quiet__passenger"/>
    <trip id="cp_quiet_53" depart="795.00" from="-25630529#6" to="173522653#0" via="213545293.15"  type="cp_quiet__passenger"/>
    <trip id="cp_quiet_54" depart="810.00" from="-288794737#6" to="560408615" via="213545293.87"  type="cp_quiet__passenger"/>
    <trip id="cp_quiet_55" depart="825.00" from="-105232045#6" to="25561499#16" via="213545293.15"  type="cp_quiet__passenger"/>
    <trip id="cp_quiet_56" depart="840.00" from="-25630529#13" to="89562654#4" via="213545293.15"  type="cp_quiet__passenger"/>
    <trip id="cp_quiet_57" depart="855.00" from="105232041#3" to="400978929#13" via="213545293.71"  type="cp_quiet__passenger"/>
    <trip id="cp_quiet_58" depart="870.00" from="40989963#1" to="-106550068#0" via="213545293.15"  type="cp_quiet__passenger"/>
    <trip id="cp_quiet_59" depart="885.00" from="-88141693#0" to="-899914841#0" via="213545293.71"  type="cp_quiet__passenger"/>
    <trip id="cp_quiet_60" depart="900.00" from="288794737#3" to="899914841#4" via="213545293.87"  type="cp_quiet__passenger"/>
    <trip id="cp_quiet_61" depart="915.00" from="-106546081#1" to="-494611378" via="213545293.71"  type="cp_quiet__passenger"/>
    <trip id="cp_quiet_62" depart="930.00" from="559446505#1" to="-25630213#1" via="213545293.15"  type="cp_quiet__passenger"/>
    <trip id="cp_quiet_63" depart="945.00" from="-89562658#23" to="-400978927#1" via="213545293.71"  type="cp_quiet__passenger"/>
    <trip id="cp_quiet_64" depart="960.00" from="-289548195" to="-89562661#9" via="213545293.87"  type="cp_quiet__passenger"/>
    <trip id="cp_quiet_65" depart="975.00" from="53505126" to="-105232027#14" via="213545293.71"  type="cp_quiet__passenger"/>
    <trip id="cp_quiet_66" depart="990.00" from="931822795#1" to="89562703#13" via="213545293.87"  type="cp_quiet__passenger"/>
    <trip id="cp_quiet_67" depart="1005.00" from="88141674#0" to="-25561499#12" via="213545293.87"  type="cp_quiet__passenger"/>
    <trip id="cp_quiet_68" depart="1020.00" from="-899914841#10" to="-80444869#6" via="213545293.15"  type="cp_quiet__passenger"/>
    <trip id="cp_quiet_69" depart="1035.00" from="-105232030#17" to="902777247#2" via="213545293.71"  type="cp_quiet__passenger"/>
    <trip id="cp_quiet_70" depart="1050.00" from="-376714133#1" to="-89562703#16" via="213545293.87"  type="cp_quiet__passenger"/>
    <trip id="cp_quiet_71" depart="1065.00" from="-88141673#0" to="904673614#4" via="213545293.87"  type="cp_quiet__passenger"/>
    <trip id="cp_quiet_72" depart="1080.00" from="105232027#4" to="-23173789#4" via="213545293.87"  type="cp_quiet__passenger"/>
    <trip id="cp_quiet_73" depart="1095.00" from="-400978937#3" to="106546023" via="213545293.87"  type="cp_quiet__passenger"/>
    <trip id="cp_quiet_74" depart="1110.00" from="105168427#17" to="-105232030#16" via="213545293.87"  type="cp_quiet__passenger"/>
    <trip id="cp_quiet_75" depart="1125.00" from="106545970#2" to="49850018#2" via="213545293.71"  type="cp_quiet__passenger"/>
    <trip id="cp_quiet_76" depart="1140.00" from="-225682975#1" to="-106545970#12" via="213545293.87"  type="cp_quiet__passenger"/>
    <trip id="cp_quiet_77" depart="1155.00" from="-25561499#6" to="25561499#30" via="213545293.71"  type="cp_quiet__passenger"/>
    <trip id="cp_quiet_78" depart="1170.00" from="-288839029" to="78828539#36" via="213545293.15"  type="cp_quiet__passenger"/>
    <trip id="cp_quiet_79" depart="1185.00" from="-288974457#0" to="1416317269#3" via="213545293.71"  type="cp_quiet__passenger"/>
    <trip id="cp_quiet_80" depart="1200.00" from="-878249329#2" to="105168427#0" via="213545293.71"  type="cp_quiet__passenger"/>
    <trip id="cp_quiet_81" depart="1215.00" from="88213886#1" to="283440274" via="213545293.15"  type="cp_quiet__passenger"/>
    <trip id="cp_quiet_82" depart="1230.00" from="-288974418" to="25561499#22" via="213545293.71"  type="cp_quiet__passenger"/>
    <trip id="cp_quiet_83" depart="1245.00" from="-40989446" to="33189690#17" via="213545293.15"  type="cp_quiet__passenger"/>
    <trip id="cp_quiet_84" depart="1260.00" from="-105232048" to="931822795#0" via="213545293.71"  type="cp_quiet__passenger"/>
    <trip id="cp_quiet_85" depart="1275.00" from="904673614#5" to="-26921982#2" via="213545293.15"  type="cp_quiet__passenger"/>
    <trip id="cp_quiet_86" depart="1290.00" from="-376714133#1" to="78828539#1" via="213545293.87"  type="cp_quiet__passenger"/>
    <trip id="cp_quiet_87" depart="1305.00" from="745826132#1" to="-23173860#2" via="213545293.71"  type="cp_quiet__passenger"/>
    <trip id="cp_quiet_88" depart="1320.00" from="41691163#9" to="1115580105" via="213545293.87"  type="cp_quiet__passenger"/>
    <trip id="cp_quiet_89" depart="1335.00" from="902777248#0" to="-105159760#6" via="213545293.71"  type="cp_quiet__passenger"/>
    <trip id="cp_quiet_90" depart="1350.00" from="41691152#1" to="23627726#1" via="213545293.15"  type="cp_quiet__passenger"/>
    <trip id="cp_quiet_91" depart="1365.00" from="89562654#1" to="-106620701#0" via="213545293.15"  type="cp_quiet__passenger"/>
    <trip id="cp_quiet_92" depart="1380.00" from="-106550086" to="-400978919#1" via="213545293.71"  type="cp_quiet__passenger"/>
    <trip id="cp_quiet_93" depart="1395.00" from="106550082" to="-25630529#10" via="213545293.87"  type="cp_quiet__passenger"/>
    <trip id="cp_quiet_94" depart="1410.00" from="1416317677" to="105159760#11" via="213545293.15"  type="cp_quiet__passenger"/>
    <trip id="cp_quiet_95" depart="1425.00" from="78828551#3" to="-106546024#1" via="213545293.87"  type="cp_quiet__passenger"/>
    <trip id="cp_quiet_96" depart="1440.00" from="-88141673#2" to="-105159760#1" via="213545293.15"  type="cp_quiet__passenger"/>
    <trip id="cp_quiet_97" depart="1455.00" from="376714133#5" to="-400978913#4" via="213545293.71"  type="cp_quiet__passenger"/>
    <trip id="cp_quiet_98" depart="1470.00" from="288974411" to="-89562658#0" via="213545293.71"  type="cp_quiet__passenger"/>
    <trip id="cp_quiet_99" depart="1485.00" from="-105159761#2" to="78828539#16" via="213545293.15"  type="cp_quiet__passenger"/>
    <trip id="cp_quiet_100" depart="1500.00" from="78828551#0" to="476424897" via="213545293.71"  type="cp_quiet__passenger"/>
    <trip id="cp_quiet_101" depart="1515.00" from="106545970#1" to="-1416317269#6" via="213545293.15"  type="cp_quiet__passenger"/>
    <trip id="cp_quiet_102" depart="1530.00" from="-41691147#11" to="40989953#2" via="213545293.87"  type="cp_quiet__passenger"/>
    <trip id="cp_quiet_103" depart="1545.00" from="49850019#2" to="-25630529#25" via="213545293.87"  type="cp_quiet__passenger"/>
    <trip id="cp_quiet_104" depart="1560.00" from="-288974460#3" to="400978924#1" via="213545293.15"  type="cp_quiet__passenger"/>
    <trip id="cp_quiet_105" depart="1575.00" from="78828534#3" to="1416317269#6" via="213545293.71"  type="cp_quiet__passenger"/>
    <trip id="cp_quiet_106" depart="1590.00" from="-213545296#9" to="711802514#0" via="213545293.87"  type="cp_quiet__passenger"/>
    <trip id="cp_quiet_107" depart="1605.00" from="89562703#32" to="78828539#11" via="213545293.87"  type="cp_quiet__passenger"/>
    <trip id="cp_quiet_108" depart="1620.00" from="-105159772#16" to="-476424899#0" via="213545293.87"  type="cp_quiet__passenger"/>
    <trip id="cp_quiet_109" depart="1635.00" from="88141687#3" to="710509165" via="213545293.87"  type="cp_quiet__passenger"/>
    <trip id="cp_quiet_110" depart="1650.00" from="41691147#18" to="400978930" via="213545293.15"  type="cp_quiet__passenger"/>
    <trip id="cp_quiet_111" depart="1665.00" from="-106550090#0" to="560408571#1" via="213545293.87"  type="cp_quiet__passenger"/>
    <trip id="cp_quiet_112" depart="1680.00" from="-26921982#2" to="-89562703#30" via="213545293.87"  type="cp_quiet__passenger"/>
    <trip id="cp_quiet_113" depart="1695.00" from="-40989954#3" to="-288974406#6" via="213545293.87"  type="cp_quiet__passenger"/>
    <trip id="cp_quiet_114" depart="1710.00" from="-105159772#13" to="-476424898#0" via="213545293.15"  type="cp_quiet__passenger"/>
    <trip id="cp_quiet_115" depart="1725.00" from="560408571#0" to="-400978927#4" via="213545293.87"  type="cp_quiet__passenger"/>
    <trip id="cp_quiet_116" depart="1740.00" from="191555413#1" to="89562711#1" via="213545293.71"  type="cp_quiet__passenger"/>
    <trip id="cp_quiet_117" depart="1755.00" from="105168401#0" to="-106620701#0" via="213545293.87"  type="cp_quiet__passenger"/>
    <trip id="cp_quiet_118" depart="1770.00" from="89562703#16" to="89562689#3" via="213545293.15"  type="cp_quiet__passenger"/>
    <trip id="cp_quiet_119" depart="1785.00" from="-376714133#1" to="-89562658#5" via="213545293.15"  type="cp_quiet__passenger"/>
    <trip id="cp_quiet_120" depart="1800.00" from="288794737#2" to="106550095#8" via="213545293.15"  type="cp_quiet__passenger"/>
    <trip id="cp_quiet_121" depart="1815.00" from="105159761#2" to="106546019#0" via="213545293.71"  type="cp_quiet__passenger"/>
    <trip id="cp_quiet_122" depart="1830.00" from="-33189690#13" to="-100834037#3" via="213545293.87"  type="cp_quiet__passenger"/>
    <trip id="cp_quiet_123" depart="1845.00" from="88141673#0" to="288780411#2" via="213545293.71"  type="cp_quiet__passenger"/>
    <trip id="cp_quiet_124" depart="1860.00" from="288974415" to="-745826132#1" via="213545293.87"  type="cp_quiet__passenger"/>
    <trip id="cp_quiet_125" depart="1875.00" from="-105232045#4" to="-476424898#3" via="213545293.71"  type="cp_quiet__passenger"/>
    <trip id="cp_quiet_126" depart="1890.00" from="-41691149#4" to="288780411#2" via="213545293.87"  type="cp_quiet__passenger"/>
    <trip id="cp_quiet_127" depart="1905.00" from="-40989446" to="-878249329#6" via="213545293.15"  type="cp_quiet__passenger"/>
    <trip id="cp_quiet_128" depart="1920.00" from="-78828551#4" to="-1416317269#6" via="213545293.15"  type="cp_quiet__passenger"/>
    <trip id="cp_quiet_129" depart="1935.00" from="-878249329#6" to="25561499#4" via="213545293.87"  type="cp_quiet__passenger"/>
    <trip id="cp_quiet_130" depart="1950.00" from="78828549#2" to="-41691149#1" via="213545293.71"  type="cp_quiet__passenger"/>
    <trip id="cp_quiet_131" depart="1965.00" from="105168430#0" to="-400978937#4" via="-105159760#17"  type="cp_quiet__passenger"/>
    <trip id="cp_quiet_132" depart="1980.00" from="-88141691#0" to="23173789#17" via="213545293.71"  type="cp_quiet__passenger"/>
    <trip id="cp_quiet_133" depart="1995.00" from="-89562689#3" to="-283440274" via="213545293.71"  type="cp_quiet__passenger"/>
    <trip id="cp_quiet_134" depart="2010.00" from="-89562703#20" to="40989953#1" via="213545293.87"  type="cp_quiet__passenger"/>
    <trip id="cp_quiet_135" depart="2025.00" from="-23173860#7" to="105159774#2" via="213545293.15"  type="cp_quiet__passenger"/>
    <trip id="cp_quiet_136" depart="2040.00" from="1416317676#0" to="41691157#3" via="213545293.15"  type="cp_quiet__passenger"/>
    <trip id="cp_quiet_137" depart="2055.00" from="288974456#2" to="-288974406#0" via="213545293.87"  type="cp_quiet__passenger"/>
    <trip id="cp_quiet_138" depart="2070.00" from="-25630213#3" to="-33189690#13" via="-80444869#7"  type="cp_quiet__passenger"/>
    <trip id="cp_quiet_139" depart="2085.00" from="-89562703#24" to="-106545959#2" via="213545293.87"  type="cp_quiet__passenger"/>
    <trip id="cp_quiet_140" depart="2100.00" from="-80733949#1" to="-25630215#1" via="213545293.71"  type="cp_quiet__passenger"/>
    <trip id="cp_quiet_141" depart="2115.00" from="25583275#2" to="-33189690#10" via="213545293.71"  type="cp_quiet__passenger"/>
    <trip id="cp_quiet_142" depart="2130.00" from="225682971#1" to="33189690#14" via="-106546019#0"  type="cp_quiet__passenger"/>
    <trip id="cp_quiet_143" depart="2145.00" from="376714133#3" to="-89562655#0" via="213545293.15"  type="cp_quiet__passenger"/>
    <trip id="cp_quiet_144" depart="2160.00" from="-25561499#15" to="105159774#8" via="213545293.87"  type="cp_quiet__passenger"/>
    <trip id="cp_quiet_145" depart="2175.00" from="-105232027#11" to="494611386#2" via="213545293.15"  type="cp_quiet__passenger"/>
    <trip id="cp_quiet_146" depart="2190.00" from="-89562661#4" to="25561499#12" via="213545293.87"  type="cp_quiet__passenger"/>
    <trip id="cp_quiet_147" depart="2205.00" from="902777248#1" to="89562661#14" via="213545293.71"  type="cp_quiet__passenger"/>
    <trip id="cp_quiet_148" depart="2220.00" from="78828539#21" to="288780411#1" via="213545293.71"  type="cp_quiet__passenger"/>
    <trip id="cp_quiet_149" depart="2235.00" from="100834037#5" to="105232030#29" via="213545293.87"  type="cp_quiet__passenger"/>
    <trip id="cp_quiet_150" depart="2250.00" from="78828539#5" to="-902796264" via="213545293.87"  type="cp_quiet__passenger"/>
    <trip id="cp_quiet_151" depart="2265.00" from="-33189690#5" to="213545289#2" via="213545293.15"  type="cp_quiet__passenger"/>
    <trip id="cp_quiet_152" depart="2280.00" from="33189770" to="1428527847" via="213545293.71"  type="cp_quiet__passenger"/>
    <trip id="cp_quiet_153" depart="2295.00" from="-400978914#12" to="-400978937#2" via="213545293.15"  type="cp_quiet__passenger"/>
    <trip id="cp_quiet_154" depart="2310.00" from="-400978913#2" to="105232027#7" via="213545293.15"  type="cp_quiet__passenger"/>
    <trip id="cp_quiet_155" depart="2325.00" from="-1416317676#2" to="25630213#9" via="213545293.15"  type="cp_quiet__passenger"/>
    <trip id="cp_quiet_156" depart="2340.00" from="25630215#3" to="-878249329#3" via="213545293.15"  type="cp_quiet__passenger"/>
    <trip id="cp_quiet_157" depart="2355.00" from="105168427#18" to="-25630529#18" via="213545293.71"  type="cp_quiet__passenger"/>
    <trip id="cp_quiet_158" depart="2370.00" from="-878249329#4" to="106546081#0" via="213545293.87"  type="cp_quiet__passenger"/>
    <trip id="cp_quiet_159" depart="2385.00" from="25583275#17" to="376718512#4" via="213545293.87"  type="cp_quiet__passenger"/>
    <trip id="cp_quiet_160" depart="2400.00" from="-78828534#2" to="-560408571#1" via="-106546033"  type="cp_quiet__passenger"/>
    <trip id="cp_quiet_161" depart="2415.00" from="288974460#0" to="89562661#4" via="213545293.87"  type="cp_quiet__passenger"/>
    <trip id="cp_quiet_162" depart="2430.00" from="-878249329#2" to="105232030#24" via="213545293.87"  type="cp_quiet__passenger"/>
    <trip id="cp_quiet_163" depart="2445.00" from="106550078#2" to="-288794788#1" via="213545293.15"  type="cp_quiet__passenger"/>
    <trip id="cp_quiet_164" depart="2460.00" from="-893735984" to="-476424900#1" via="-904673614#0"  type="cp_quiet__passenger"/>
    <trip id="cp_quiet_165" depart="2475.00" from="25561499#18" to="-25541837#0" via="213545293.71"  type="cp_quiet__passenger"/>
    <trip id="cp_quiet_166" depart="2490.00" from="-89562694" to="1416317674" via="213545293.15"  type="cp_quiet__passenger"/>
    <trip id="cp_quiet_167" depart="2505.00" from="-105159772#4" to="106545960#5" via="213545293.71"  type="cp_quiet__passenger"/>
    <trip id="cp_quiet_168" depart="2520.00" from="-105159772#5" to="-213545270#0" via="213545293.71"  type="cp_quiet__passenger"/>
    <trip id="cp_quiet_169" depart="2535.00" from="-89562675#2" to="-78828539#28" via="213545293.15"  type="cp_quiet__passenger"/>
    <trip id="cp_quiet_170" depart="2550.00" from="-25630529#0" to="376714133#2" via="213545293.15"  type="cp_quiet__passenger"/>
    <trip id="cp_quiet_171" depart="2565.00" from="-78828534#13" to="476424891#4" via="213545293.87"  type="cp_quiet__passenger"/>
    <trip id="cp_quiet_172" depart="2580.00" from="-33189593#0" to="-105159771#24" via="213545293.15"  type="cp_quiet__passenger"/>
    <trip id="cp_quiet_173" depart="2595.00" from="105168427#0" to="-560408569#1" via="931822795#0"  type="cp_quiet__passenger"/>
    <trip id="cp_quiet_174" depart="2610.00" from="213545296#3" to="23173789#10" via="213545293.87"  type="cp_quiet__passenger"/>
    <trip id="cp_quiet_175" depart="2625.00" from="288974460#2" to="-25630216#3" via="213545293.87"  type="cp_quiet__passenger"/>
    <trip id="cp_quiet_176" depart="2640.00" from="-105159771#4" to="-1416317269#3" via="213545293.15"  type="cp_quiet__passenger"/>
    <trip id="cp_quiet_177" depart="2655.00" from="23173860#5" to="-288794737#4" via="213545293.71"  type="cp_quiet__passenger"/>
    <trip id="cp_quiet_178" depart="2670.00" from="25583275#6" to="-25561499#16" via="213545293.87"  type="cp_quiet__passenger"/>
    <trip id="cp_quiet_179" depart="2685.00" from="106550090#15" to="-106620686#0" via="213545293.87"  type="cp_quiet__passenger"/>
    <trip id="cp_quiet_180" depart="2700.00" from="41691152#2" to="-106550090#3" via="213545293.87"  type="cp_quiet__passenger"/>
    <trip id="cp_quiet_181" depart="2715.00" from="-105159772#19" to="25561499#4" via="213545293.15"  type="cp_quiet__passenger"/>
    <trip id="cp_quiet_182" depart="2730.00" from="89562661#9" to="27163017" via="213545293.71"  type="cp_quiet__passenger"/>
    <trip id="cp_quiet_183" depart="2745.00" from="-106545959#4" to="1428541327" via="213545293.87"  type="cp_quiet__passenger"/>
    <trip id="cp_quiet_184" depart="2760.00" from="-106550073" to="49840960#2" via="213545293.87"  type="cp_quiet__passenger"/>
    <trip id="cp_quiet_185" depart="2775.00" from="106546085" to="899914841#4" via="213545293.15"  type="cp_quiet__passenger"/>
    <trip id="cp_quiet_186" depart="2790.00" from="400978917#4" to="-89562658#1" via="213545293.15"  type="cp_quiet__passenger"/>
    <trip id="cp_quiet_187" depart="2805.00" from="-711802514#2" to="-494758078" via="213545293.71"  type="cp_quiet__passenger"/>
    <trip id="cp_quiet_188" depart="2820.00" from="476424900#0" to="-106550090#2" via="213545293.87"  type="cp_quiet__passenger"/>
    <trip id="cp_quiet_189" depart="2835.00" from="89562675#1" to="419958546#1" via="213545293.71"  type="cp_quiet__passenger"/>
    <trip id="cp_quiet_190" depart="2850.00" from="25630216#1" to="288974437#1" via="213545293.71"  type="cp_quiet__passenger"/>
    <trip id="cp_quiet_191" depart="2865.00" from="89562689#5" to="41691149#7" via="213545293.15"  type="cp_quiet__passenger"/>
    <trip id="cp_quiet_192" depart="2880.00" from="105168401#5" to="-89562658#9" via="213545293.71"  type="cp_quiet__passenger"/>
    <trip id="cp_quiet_193" depart="2895.00" from="288794788#1" to="49850017#8" via="213545293.15"  type="cp_quiet__passenger"/>
    <trip id="cp_quiet_194" depart="2910.00" from="41691163#23" to="78828539#12" via="213545293.15"  type="cp_quiet__passenger"/>
    <trip id="cp_quiet_195" depart="2925.00" from="-288974456#0" to="106620701#3" via="213545293.71"  type="cp_quiet__passenger"/>
    <trip id="cp_quiet_196" depart="2940.00" from="-78828534#11" to="49850017#1" via="-899914841#8"  type="cp_quiet__passenger"/>
    <trip id="cp_quiet_197" depart="2955.00" from="-25561499#28" to="40989954#0" via="213545293.15"  type="cp_quiet__passenger"/>
    <trip id="cp_quiet_198" depart="2970.00" from="-476424898#2" to="25630216#4" via="213545293.87"  type="cp_quiet__passenger"/>
    <trip id="cp_quiet_199" depart="2985.00" from="-400978914#6" to="89562661#1" via="-25561499#21"  type="cp_quiet__passenger"/>
    <trip id="cp_quiet_200" depart="3000.00" from="-106545970#8" to="105159760#11" via="213545293.87"  type="cp_quiet__passenger"/>
    <trip id="cp_quiet_201" depart="3015.00" from="33189690#12" to="213545298#1" via="213545293.87"  type="cp_quiet__passenger"/>
    <trip id="cp_quiet_202" depart="3030.00" from="-902777248#3" to="-106546024#4" via="213545293.87"  type="cp_quiet__passenger"/>
    <trip id="cp_quiet_203" depart="3045.00" from="-25676052#1" to="-41691152#12" via="213545293.87"  type="cp_quiet__passenger"/>
    <trip id="cp_quiet_204" depart="3060.00" from="106545960#9" to="105168430#0" via="213545293.71"  type="cp_quiet__passenger"/>
    <trip id="cp_quiet_205" depart="3075.00" from="-88141675" to="-476424898#6" via="213545293.87"  type="cp_quiet__passenger"/>
    <trip id="cp_quiet_206" depart="3090.00" from="25630213#7" to="-33189690#9" via="213545293.15"  type="cp_quiet__passenger"/>
    <trip id="cp_quiet_207" depart="3105.00" from="-106550095#9" to="-128252747#3" via="213545293.15"  type="cp_quiet__passenger"/>
    <trip id="cp_quiet_208" depart="3120.00" from="105159774#8" to="-25583275#18" via="213545293.87"  type="cp_quiet__passenger"/>
    <trip id="cp_quiet_209" depart="3135.00" from="-25630529#2" to="288839028#10" via="213545293.71"  type="cp_quiet__passenger"/>
    <trip id="cp_quiet_210" depart="3150.00" from="89562703#33" to="-400978929#6" via="213545293.71"  type="cp_quiet__passenger"/>
    <trip id="cp_quiet_211" depart="3165.00" from="-106550068#0" to="-288974406#5" via="213545293.15"  type="cp_quiet__passenger"/>
    <trip id="cp_quiet_212" depart="3180.00" from="-25561499#23" to="105168446#6" via="-288974456#0"  type="cp_quiet__passenger"/>
    <trip id="cp_quiet_213" depart="3195.00" from="-400978914#11" to="105232041#2" via="213545293.87"  type="cp_quiet__passenger"/>
    <trip id="cp_quiet_214" depart="3210.00" from="25583275#22" to="711802514#7" via="213545293.15"  type="cp_quiet__passenger"/>
    <trip id="cp_quiet_215" depart="3225.00" from="-902777248#3" to="106545982#4" via="213545293.87"  type="cp_quiet__passenger"/>
    <trip id="cp_quiet_216" depart="3240.00" from="-89562701#1" to="-25583275#17" via="213545293.71"  type="cp_quiet__passenger"/>
    <trip id="cp_quiet_217" depart="3255.00" from="-105232027#14" to="-904673614#15" via="213545293.87"  type="cp_quiet__passenger"/>
    <trip id="cp_quiet_218" depart="3270.00" from="41691155#2" to="-106545960#0" via="213545293.71"  type="cp_quiet__passenger"/>
    <trip id="cp_quiet_219" depart="3285.00" from="1416317269#3" to="-23173785#1" via="213545293.15"  type="cp_quiet__passenger"/>
    <trip id="cp_quiet_220" depart="3300.00" from="105232030#23" to="904673614#19" via="213545293.15"  type="cp_quiet__passenger"/>
    <trip id="cp_quiet_221" depart="3315.00" from="-106550095#2" to="106550095#8" via="213545293.87"  type="cp_quiet__passenger"/>
    <trip id="cp_quiet_222" depart="3330.00" from="400978927#3" to="105168427#0" via="213545293.15"  type="cp_quiet__passenger"/>
    <trip id="cp_quiet_223" depart="3345.00" from="-89562658#9" to="645739342#0" via="213545293.71"  type="cp_quiet__passenger"/>
    <trip id="cp_quiet_224" depart="3360.00" from="902796264" to="1416317269#6" via="213545293.15"  type="cp_quiet__passenger"/>
    <trip id="cp_quiet_225" depart="3375.00" from="106550090#2" to="89562658#9" via="213545293.87"  type="cp_quiet__passenger"/>