<?xml version="1.0" encoding="UTF-8"?>

<!-- generated on 2026-01-26 23:27:35.947325 by Eclipse SUMO randomTrips.py v1_25_0+0000-ac6c5a6752d
<configuration>
    <net-file value="osm.net.xml"/>
    <output-trip-file value="trips/carDefault.trips.xml"/>
    <prefix value="c_"/>
    <trip-attributes value="guiShape='passenger'"/>
    <vehicle-class value="passenger"/>
    <end value="6000.0"/>
    <period value="2.0"/>
</configuration>
-->

<routes xmlns:xsi="http://www.w3.org/2001/XMLSchema-instance" xsi:noNamespaceSchemaLocation="http://sumo.dlr.de/xsd/routes_file.xsd">
    <vType id="c__passenger" vClass="passenger" guiShape='passenger'/>
    <trip id="c_0" depart="0.00" from="173522653#0" to="-105159772#14" type="c__passenger"/>
    <trip id="c_1" depart="2.00" from="-400978922#3" to="-288974420#0" type="c__passenger"/>
    <trip id="c_2" depart="4.00" from="288974454#0" to="25583275#22" type="c__passenger"/>
    <trip id="c_3" depart="6.00" from="78828539#8" to="-106545970#6" type="c__passenger"/>
    <trip id="c_4" depart="8.00" from="-88141673#2" to="-105159774#0" type="c__passenger"/>
    <trip id="c_5" depart="10.00" from="-288794737#1" to="105159771#16" type="c__passenger"/>
    <trip id="c_6" depart="12.00" from="-105159772#17" to="-25630529#17" type="c__passenger"/>
    <trip id="c_7" depart="14.00" from="23173789#1" to="105232027#7" type="c__passenger"/>
    <trip id="c_8" depart="16.00" from="-288794737#6" to="106546033" type="c__passenger"/>
    <trip id="c_9" depart="18.00" from="41691152#12" to="-105159760#17" type="c__passenger"/>
    <trip id="c_10" depart="20.00" from="41691149#4" to="25630529#18" type="c__passenger"/>
    <trip id="c_11" depart="22.00" from="-476424899#9" to="-25541837#0" type="c__passenger"/>
    <trip id="c_12" depart="24.00" from="89562672#0" to="-49850017#0" type="c__passenger"/>
    <trip id="c_13" depart="26.00" from="-106545982#2" to="-106546024#0" type="c__passenger"/>
    <trip id="c_14" depart="28.00" from="494611386#1" to="106550090#15" type="c__passenger"/>
    <trip id="c_15" depart="30.00" from="41691152#0" to="288974454#9" type="c__passenger"/>
    <trip id="c_16" depart="32.00" from="105159774#0" to="89562703#30" type="c__passenger"/>
    <trip id="c_17" depart="34.00" from="-78828534#7" to="105232030#27" type="c__passenger"/>
    <trip id="c_18" depart="36.00" from="44014594#1" to="106620701#2" type="c__passenger"/>
    <trip id="c_19" depart="38.00" from="705955085#3" to="106545970#7" type="c__passenger"/>
    <trip id="c_20" depart="40.00" from="25630216#8" to="-105168427#6" type="c__passenger"/>
    <trip id="c_21" depart="42.00" from="-288974406#1" to="-41691147#14" type="c__passenger"/>
    <trip id="c_22" depart="44.00" from="-106545959#3" to="-33189690#12" type="c__passenger"/>
    <trip id="c_23" depart="46.00" from="-106546024#4" to="-400978937#5" type="c__passenger"/>
    <trip id="c_24" depart="48.00" from="1428541328" to="-78828534#4" type="c__passenger"/>
    <trip id="c_25" depart="50.00" from="-725476480#0" to="-288794737#1" type="c__passenger"/>
    <trip id="c_26" depart="52.00" from="-400978914#8" to="89562658#1" type="c__passenger"/>
    <trip id="c_27" depart="54.00" from="23173787" to="106550090#7" type="c__passenger"/>
    <trip id="c_28" depart="56.00" from="-25561499#28" to="288974454#8" type="c__passenger"/>
    <trip id="c_29" depart="58.00" from="-25561499#12" to="-78828539#9" type="c__passenger"/>
    <trip id="c_30" depart="60.00" from="902796264" to="23173789#12" type="c__passenger"/>
    <trip id="c_31" depart="62.00" from="105168446#7" to="25630215#0" type="c__passenger"/>
    <trip id="c_32" depart="64.00" from="476424900#1" to="400978929#6" type="c__passenger"/>
    <trip id="c_33" depart="66.00" from="-288974406#3" to="-105159774#4" type="c__passenger"/>
    <trip id="c_34" depart="68.00" from="-41691155#6" to="-400978926#0" type="c__passenger"/>
    <trip id="c_35" depart="70.00" from="-25630529#3" to="89562658#23" type="c__passenger"/>
    <trip id="c_36" depart="72.00" from="78828534#13" to="-419958542" type="c__passenger"/>
    <trip id="c_37" depart="74.00" from="23173789#5" to="-80444868#1" type="c__passenger"/>
    <trip id="c_38" depart="76.00" from="876288098#1" to="-89562703#26" type="c__passenger"/>
    <trip id="c_39" depart="78.00" from="-400978914#12" to="-376714133#5" type="c__passenger"/>
    <trip id="c_40" depart="80.00" from="105232027#4" to="-400978919#1" type="c__passenger"/>
    <trip id="c_41" depart="82.00" from="106545960#10" to="78828552#2" type="c__passenger"/>
    <trip id="c_42" depart="84.00" from="-78828551#4" to="-288974406#2" type="c__passenger"/>
    <trip id="c_43" depart="86.00" from="904673614#8" to="105159771#5" type="c__passenger"/>
    <trip id="c_44" depart="88.00" from="-106545970#9" to="-105168430#0" type="c__passenger"/>
    <trip id="c_45" depart="90.00" from="-106550079#1" to="1456785327" type="c__passenger"/>
    <trip id="c_46" depart="92.00" from="40989449#1" to="-89562654#1" type="c__passenger"/>
    <trip id="c_47" depart="94.00" from="-105232030#23" to="-78828544#6" type="c__passenger"/>
    <trip id="c_48" depart="96.00" from="904673614#5" to="105168427#17" type="c__passenger"/>
    <trip id="c_49" depart="98.00" from="89562703#22" to="711802514#5" type="c__passenger"/>
    <trip id="c_50" depart="100.00" from="-105159764#2" to="288974406#1" type="c__passenger"/>
    <trip id="c_51" depart="102.00" from="25561514#2" to="105168446#1" type="c__passenger"/>
    <trip id="c_52" depart="104.00" from="-400978914#8" to="23173789#14" type="c__passenger"/>
    <trip id="c_53" depart="106.00" from="-106550084" to="-89562658#9" type="c__passenger"/>
    <trip id="c_54" depart="108.00" from="-89562661#16" to="89562668" type="c__passenger"/>
    <trip id="c_55" depart="110.00" from="78828534#11" to="-400978921" type="c__passenger"/>
    <trip id="c_56" depart="112.00" from="-904673614#5" to="-25583275#3" type="c__passenger"/>
    <trip id="c_57" depart="114.00" from="80444869#7" to="78828534#2" type="c__passenger"/>
    <trip id="c_58" depart="116.00" from="-40989963#1" to="23173789#10" type="c__passenger"/>
    <trip id="c_59" depart="118.00" from="106550068#0" to="-23627726#2" type="c__passenger"/>
    <trip id="c_60" depart="120.00" from="376718512#8" to="105232027#0" type="c__passenger"/>
    <trip id="c_61" depart="122.00" from="400978926#0" to="105168427#21" type="c__passenger"/>
    <trip id="c_62" depart="124.00" from="-100834037#1" to="-476424898#6" type="c__passenger"/>
    <trip id="c_63" depart="126.00" from="-105159771#20" to="893735984" type="c__passenger"/>
    <trip id="c_64" depart="128.00" from="78828534#5" to="476424899#10" type="c__passenger"/>
    <trip id="c_65" depart="130.00" from="-41691149#8" to="-105232030#0" type="c__passenger"/>
    <trip id="c_66" depart="132.00" from="78828534#3" to="89562661#12" type="c__passenger"/>
    <trip id="c_67" depart="134.00" from="-106545970#0" to="100834037#0" type="c__passenger"/>
    <trip id="c_68" depart="136.00" from="-105232039" to="400978914#9" type="c__passenger"/>
    <trip id="c_69" depart="138.00" from="400978914#10" to="-1428527847" type="c__passenger"/>
    <trip id="c_70" depart="140.00" from="-89562703#22" to="105232030#2" type="c__passenger"/>
    <trip id="c_71" depart="142.00" from="-400978914#2" to="78828534#5" type="c__passenger"/>
    <trip id="c_72" depart="144.00" from="-88141674#1" to="-288794737#6" type="c__passenger"/>
    <trip id="c_73" depart="146.00" from="105159774#6" to="288974457#0" type="c__passenger"/>
    <trip id="c_74" depart="148.00" from="-25630218#0" to="-41691163#24" type="c__passenger"/>
    <trip id="c_75" depart="150.00" from="904673614#3" to="23173860#8" type="c__passenger"/>
    <trip id="c_76" depart="152.00" from="-89562655#0" to="105159774#0" type="c__passenger"/>
    <trip id="c_77" depart="154.00" from="-106550090#6" to="-288974454#2" type="c__passenger"/>
    <trip id="c_78" depart="156.00" from="-476424899#10" to="106546024#4" type="c__passenger"/>
    <trip id="c_79" depart="158.00" from="-288974406#5" to="-288974406#3" type="c__passenger"/>
    <trip id="c_80" depart="160.00" from="-105232041#0" to="191555412#1" type="c__passenger"/>
    <trip id="c_81" depart="162.00" from="-288974406#3" to="80444869#7" type="c__passenger"/>
    <trip id="c_82" depart="164.00" from="701022113" to="-105232041#2" type="c__passenger"/>
    <trip id="c_83" depart="166.00" from="-288974458#0" to="25561514#1" type="c__passenger"/>
    <trip id="c_84" depart="168.00" from="-283440274" to="-191555413#0" type="c__passenger"/>
    <trip id="c_85" depart="170.00" from="89562654#1" to="106545960#6" type="c__passenger"/>
    <trip id="c_86" depart="172.00" from="-89562703#16" to="40989449#1" type="c__passenger"/>
    <trip id="c_87" depart="174.00" from="41691152#0" to="-25630216#13" type="c__passenger"/>
    <trip id="c_88" depart="176.00" from="-106546019#1" to="-89562658#19" type="c__passenger"/>
    <trip id="c_89" depart="178.00" from="-88141674#2" to="-89562711#1" type="c__passenger"/>
    <trip id="c_90" depart="180.00" from="288839028#9" to="25583275#13" type="c__passenger"/>
    <trip id="c_91" depart="182.00" from="899914841#7" to="-106546024#4" type="c__passenger"/>
    <trip id="c_92" depart="184.00" from="-78828552#17" to="-49850018#2" type="c__passenger"/>
    <trip id="c_93" depart="186.00" from="705955085#3" to="-376718512#2" type="c__passenger"/>
    <trip id="c_94" depart="188.00" from="-25630213#4" to="-89562689#3" type="c__passenger"/>
    <trip id="c_95" depart="190.00" from="-88141673#2" to="-400978939" type="c__passenger"/>
    <trip id="c_96" depart="192.00" from="-33189690#7" to="88141691#0" type="c__passenger"/>
    <trip id="c_97" depart="194.00" from="-89562658#11" to="711802514#7" type="c__passenger"/>
    <trip id="c_98" depart="196.00" from="105168427#26" to="-105168446#7" type="c__passenger"/>
    <trip id="c_99" depart="198.00" from="931822795#1" to="476424900#2" type="c__passenger"/>
    <trip id="c_100" depart="200.00" from="89562703#17" to="88213886#0" type="c__passenger"/>
    <trip id="c_101" depart="202.00" from="494758078" to="-25561499#33" type="c__passenger"/>
    <trip id="c_102" depart="204.00" from="-89562711#2" to="-288839028#1" type="c__passenger"/>
    <trip id="c_103" depart="206.00" from="-78828552#13" to="-105232030#10" type="c__passenger"/>
    <trip id="c_104" depart="208.00" from="-78828534#8" to="902777247#4" type="c__passenger"/>
    <trip id="c_105" depart="210.00" from="-400978914#2" to="40989449#0" type="c__passenger"/>
    <trip id="c_106" depart="212.00" from="-89562661#19" to="-89562654#2" type="c__passenger"/>
    <trip id="c_107" depart="214.00" from="89562672#0" to="904673614#5" type="c__passenger"/>
    <trip id="c_108" depart="216.00" from="105168446#4" to="288839028#6" type="c__passenger"/>
    <trip id="c_109" depart="218.00" from="-23173860#0" to="-41691152#1" type="c__passenger"/>
    <trip id="c_110" depart="220.00" from="89562703#16" to="106545982#1" type="c__passenger"/>
    <trip id="c_111" depart="222.00" from="105168401#4" to="376714132" type="c__passenger"/>
    <trip id="c_112" depart="224.00" from="-105232027#6" to="106546019#1" type="c__passenger"/>
    <trip id="c_113" depart="226.00" from="-904673614#9" to="645739342#0" type="c__passenger"/>
    <trip id="c_114" depart="228.00" from="-23173860#5" to="89562689#4" type="c__passenger"/>
    <trip id="c_115" depart="230.00" from="-106545959#4" to="-25630215#0" type="c__passenger"/>
    <trip id="c_116" depart="232.00" from="106545982#0" to="25583275#18" type="c__passenger"/>
    <trip id="c_117" depart="234.00" from="-288974454#7" to="-106550095#8" type="c__passenger"/>
    <trip id="c_118" depart="236.00" from="78828539#35" to="-376714133#4" type="c__passenger"/>
    <trip id="c_119" depart="238.00" from="106545970#9" to="106620701#3" type="c__passenger"/>
    <trip id="c_120" depart="240.00" from="-878249329#7" to="106546019#0" type="c__passenger"/>
    <trip id="c_121" depart="242.00" from="105159771#13" to="89562656#0" type="c__passenger"/>
    <trip id="c_122" depart="244.00" from="-25630529#11" to="288839028#11" type="c__passenger"/>
    <trip id="c_123" depart="246.00" from="-289548195" to="-80444868#1" type="c__passenger"/>
    <trip id="c_124" depart="248.00" from="25561499#22" to="-41691152#3" type="c__passenger"/>
    <trip id="c_125" depart="250.00" from="-41691155#8" to="376718512#1" type="c__passenger"/>
    <trip id="c_126" depart="252.00" from="-105232041#3" to="-89562703#24" type="c__passenger"/>
    <trip id="c_127" depart="254.00" from="931822795#0" to="904673614#6" type="c__passenger"/>
    <trip id="c_128" depart="256.00" from="-105232045#1" to="-288839028#0" type="c__passenger"/>
    <trip id="c_129" depart="258.00" from="-400978914#2" to="89562655#2" type="c__passenger"/>
    <trip id="c_130" depart="260.00" from="78828539#1" to="78828539#22" type="c__passenger"/>
    <trip id="c_131" depart="262.00" from="-725476479#1" to="-25561499#15" type="c__passenger"/>
    <trip id="c_132" depart="264.00" from="476424892" to="25676052#0" type="c__passenger"/>
    <trip id="c_133" depart="266.00" from="106550078#2" to="902777248#2" type="c__passenger"/>
    <trip id="c_134" depart="268.00" from="23173789#19" to="-105159760#6" type="c__passenger"/>
    <trip id="c_135" depart="270.00" from="41691157#3" to="-41691152#2" type="c__passenger"/>
    <trip id="c_136" depart="272.00" from="23961341" to="89562658#15" type="c__passenger"/>
    <trip id="c_137" depart="274.00" from="-113339441#1" to="-106550091" type="c__passenger"/>
    <trip id="c_138" depart="276.00" from="-106550069" to="105232030#4" type="c__passenger"/>
    <trip id="c_139" depart="278.00" from="-400978919#0" to="106550090#17" type="c__passenger"/>
    <trip id="c_140" depart="280.00" from="27163042" to="-25630529#3" type="c__passenger"/>
    <trip id="c_141" depart="282.00" from="128252747#7" to="-400978922#0" type="c__passenger"/>
    <trip id="c_142" depart="284.00" from="-899914841#4" to="80444869#7" type="c__passenger"/>
    <trip id="c_143" depart="286.00" from="494611384" to="-106546013#1" type="c__passenger"/>
    <trip id="c_144" depart="288.00" from="-88141674#2" to="-400978937#2" type="c__passenger"/>
    <trip id="c_145" depart="290.00" from="-105159760#0" to="400978926#1" type="c__passenger"/>
    <trip id="c_146" depart="292.00" from="1428609378#4" to="-400978919#0" type="c__passenger"/>
    <trip id="c_147" depart="294.00" from="288974458#0" to="105232030#27" type="c__passenger"/>
    <trip id="c_148" depart="296.00" from="-88141687#2" to="-105159761#1" type="c__passenger"/>
    <trip id="c_149" depart="298.00" from="-105232045#7" to="78828539#34" type="c__passenger"/>
    <trip id="c_150" depart="300.00" from="78828552#17" to="105232027#8" type="c__passenger"/>
    <trip id="c_151" depart="302.00" from="476424898#0" to="106546013#1" type="c__passenger"/>
    <trip id="c_152" depart="304.00" from="-23173789#1" to="-128252747#6" type="c__passenger"/>
    <trip id="c_153" depart="306.00" from="-41691152#1" to="78828552#7" type="c__passenger"/>
    <trip id="c_154" depart="308.00" from="40989954#1" to="711802514#5" type="c__passenger"/>
    <trip id="c_155" depart="310.00" from="78828551#1" to="-288794737#2" type="c__passenger"/>
    <trip id="c_156" depart="312.00" from="-33189690#7" to="-106550068#1" type="c__passenger"/>
    <trip id="c_157" depart="314.00" from="400978927#3" to="78828539#36" type="c__passenger"/>
    <trip id="c_158" depart="316.00" from="-80444862" to="113339437#1" type="c__passenger"/>
    <trip id="c_159" depart="318.00" from="-23173789#7" to="89562653" type="c__passenger"/>
    <trip id="c_160" depart="320.00" from="711802514#10" to="89562703#8" type="c__passenger"/>
    <trip id="c_161" depart="322.00" from="41691152#3" to="78828539#26" type="c__passenger"/>
    <trip id="c_162" depart="324.00" from="-105159772#10" to="33189593#3" type="c__passenger"/>
    <trip id="c_163" depart="326.00" from="-476424891#8" to="89562654#1" type="c__passenger"/>
    <trip id="c_164" depart="328.00" from="41691147#4" to="725476480#0" type="c__passenger"/>
    <trip id="c_165" depart="330.00" from="41691152#3" to="-400978924#1" type="c__passenger"/>
    <trip id="c_166" depart="332.00" from="400978937#2" to="-106550090#11" type="c__passenger"/>
    <trip id="c_167" depart="334.00" from="745826132#0" to="711802514#11" type="c__passenger"/>
    <trip id="c_168" depart="336.00" from="-288839028#0" to="41691163#3" type="c__passenger"/>
    <trip id="c_169" depart="338.00" from="-89562672#1" to="-41691157#0" type="c__passenger"/>
    <trip id="c_170" depart="340.00" from="40989954#0" to="-288974457#0" type="c__passenger"/>
    <trip id="c_171" depart="342.00" from="-105159772#0" to="-25630216#6" type="c__passenger"/>
    <trip id="c_172" depart="344.00" from="-419958546#0" to="725476480#1" type="c__passenger"/>
    <trip id="c_173" depart="346.00" from="89562703#10" to="-400978940#0" type="c__passenger"/>
    <trip id="c_174" depart="348.00" from="191555413#1" to="-80733949#0" type="c__passenger"/>
    <trip id="c_175" depart="350.00" from="89562711#2" to="105168446#0" type="c__passenger"/>
    <trip id="c_176" depart="352.00" from="89562656#0" to="-106550091" type="c__passenger"/>
    <trip id="c_177" depart="354.00" from="89562703#20" to="-25583275#3" type="c__passenger"/>
    <trip id="c_178" depart="356.00" from="89562689#3" to="-400978923#2" type="c__passenger"/>
    <trip id="c_179" depart="358.00" from="-106550078#1" to="-89562658#9" type="c__passenger"/>
    <trip id="c_180" depart="360.00" from="288839028#8" to="-41691163#5" type="c__passenger"/>
    <trip id="c_181" depart="362.00" from="106546047" to="105159772#1" type="c__passenger"/>
    <trip id="c_182" depart="364.00" from="-78828539#22" to="106545970#6" type="c__passenger"/>
    <trip id="c_183" depart="366.00" from="-376714133#1" to="288780409#1" type="c__passenger"/>
    <trip id="c_184" depart="368.00" from="-100834037#3" to="88141693#4" type="c__passenger"/>
    <trip id="c_185" depart="370.00" from="105159774#5" to="288839028#9" type="c__passenger"/>
    <trip id="c_186" depart="372.00" from="288974458#1" to="25583275#0" type="c__passenger"/>
    <trip id="c_187" depart="374.00" from="-711802514#1" to="-105232041#0" type="c__passenger"/>
    <trip id="c_188" depart="376.00" from="23961342" to="-476424900#1" type="c__passenger"/>
    <trip id="c_189" depart="378.00" from="-41691155#2" to="53505128" type="c__passenger"/>
    <trip id="c_190" depart="380.00" from="288780408#4" to="-41691152#6" type="c__passenger"/>
    <trip id="c_191" depart="382.00" from="-41691152#11" to="-88141673#0" type="c__passenger"/>
    <trip id="c_192" depart="384.00" from="-78828552#15" to="-41691149#8" type="c__passenger"/>
    <trip id="c_193" depart="386.00" from="-106550095#9" to="-893735984" type="c__passenger"/>
    <trip id="c_194" depart="388.00" from="89562658#10" to="25583275#3" type="c__passenger"/>
    <trip id="c_195" depart="390.00" from="78828552#14" to="106550096" type="c__passenger"/>
    <trip id="c_196" depart="392.00" from="-41691147#14" to="105232030#12" type="c__passenger"/>
    <trip id="c_197" depart="394.00" from="-100834037#0" to="-40989963#1" type="c__passenger"/>
    <trip id="c_198" depart="396.00" from="-88141693#0" to="106545982#2" type="c__passenger"/>
    <trip id="c_199" depart="398.00" from="23173789#4" to="-89562705#0" type="c__passenger"/>
    <trip id="c_200" depart="400.00" from="-89562658#1" to="-288839028#1" type="c__passenger"/>
    <trip id="c_201" depart="402.00" from="-89562703#17" to="80444864" type="c__passenger"/>
    <trip id="c_202" depart="404.00" from="40989954#1" to="-25561514#0" type="c__passenger"/>
    <trip id="c_203" depart="406.00" from="-106545960#7" to="105159772#4" type="c__passenger"/>
    <trip id="c_204" depart="408.00" from="128252747#4" to="-494758078" type="c__passenger"/>
    <trip id="c_205" depart="410.00" from="41691163#10" to="376714133#5" type="c__passenger"/>
    <trip id="c_206" depart="412.00" from="25561499#24" to="-288974454#2" type="c__passenger"/>
    <trip id="c_207" depart="414.00" from="-25630216#4" to="-105159772#13" type="c__passenger"/>
    <trip id="c_208" depart="416.00" from="-33189690#15" to="-902777249#1" type="c__passenger"/>
    <trip id="c_209" depart="418.00" from="49840960#1" to="-105232045#4" type="c__passenger"/>
    <trip id="c_210" depart="420.00" from="-878236050" to="173522653#1" type="c__passenger"/>
    <trip id="c_211" depart="422.00" from="-25630215#3" to="25630529#13" type="c__passenger"/>
    <trip id="c_212" depart="424.00" from="-904673614#0" to="-376714133#0" type="c__passenger"/>
    <trip id="c_213" depart="426.00" from="23173789#6" to="-105159760#13" type="c__passenger"/>
    <trip id="c_214" depart="428.00" from="33189690#3" to="400978924#3" type="c__passenger"/>
    <trip id="c_215" depart="430.00" from="-106550068#1" to="-89562655#3" type="c__passenger"/>
    <trip id="c_216" depart="432.00" from="-25561499#9" to="89562681" type="c__passenger"/>
    <trip id="c_217" depart="434.00" from="105159764#4" to="-105168446#6" type="c__passenger"/>
    <trip id="c_218" depart="436.00" from="-33189690#6" to="559446505#1" type="c__passenger"/>
    <trip id="c_219" depart="438.00" from="-89562661#4" to="41691152#11" type="c__passenger"/>
    <trip id="c_220" depart="440.00" from="25561499#12" to="902777248#3" type="c__passenger"/>
    <trip id="c_221" depart="442.00" from="106545982#1" to="89562661#20" type="c__passenger"/>
    <trip id="c_222" depart="444.00" from="78828539#5" to="106550095#2" type="c__passenger"/>
    <trip id="c_223" depart="446.00" from="288780408#3" to="105159771#15" type="c__passenger"/>
    <trip id="c_224" depart="448.00" from="476424891#2" to="105232030#12" type="c__passenger"/>
    <trip id="c_225" depart="450.00" from="78828549#1" to="33189690#7" type="c__passenger"/>
    <trip id="c_226" depart="452.00" from="-89562703#21" to="-400978917#4" type="c__passenger"/>
    <trip id="c_227" depart="454.00" from="-33189690#2" to="23173789#0" type="c__passenger"/>
    <trip id="c_228" depart="456.00" from="400978914#10" to="105159774#7" type="c__passenger"/>
    <trip id="c_229" depart="458.00" from="106550095#8" to="-400978936#0" type="c__passenger"/>
    <trip id="c_230" depart="460.00" from="-106545952#0" to="-40989955" type="c__passenger"/>
    <trip id="c_231" depart="462.00" from="-400978917#9" to="-476424891#6" type="c__passenger"/>
    <trip id="c_232" depart="464.00" from="105159774#8" to="-225687643" type="c__passenger"/>
    <trip id="c_233" depart="466.00" from="-288974418" to="25630529#0" type="c__passenger"/>
    <trip id="c_234" depart="468.00" from="25630529#1" to="-105232030#28" type="c__passenger"/>
    <trip id="c_235" depart="470.00" from="-80444868#0" to="105232027#16" type="c__passenger"/>
    <trip id="c_236" depart="472.00" from="-878249329#0" to="-283440274" type="c__passenger"/>
    <trip id="c_237" depart="474.00" from="-878571563" to="80444869#6" type="c__passenger"/>
    <trip id="c_238" depart="476.00" from="106545960#1" to="25630529#11" type="c__passenger"/>
    <trip id="c_239" depart="478.00" from="560408569#0" to="400978918#2" type="c__passenger"/>
    <trip id="c_240" depart="480.00" from="-78828539#11" to="-105159760#14" type="c__passenger"/>
    <trip id="c_241" depart="482.00" from="-49850019#0" to="376718512#4" type="c__passenger"/>
    <trip id="c_242" depart="484.00" from="49850019#0" to="89562668" type="c__passenger"/>
    <trip id="c_243" depart="486.00" from="-878249329#6" to="376714131" type="c__passenger"/>
    <trip id="c_244" depart="488.00" from="105168427#14" to="106550090#14" type="c__passenger"/>
    <trip id="c_245" depart="490.00" from="-288794737#6" to="-288974406#2" type="c__passenger"/>
    <trip id="c_246" depart="492.00" from="-89562654#0" to="-105159772#8" type="c__passenger"/>
    <trip id="c_247" depart="494.00" from="-476424898#8" to="25583275#7" type="c__passenger"/>
    <trip id="c_248" depart="496.00" from="-78828552#4" to="-25561499#30" type="c__passenger"/>
    <trip id="c_249" depart="498.00" from="-89562692" to="-128252747#7" type="c__passenger"/>
    <trip id="c_250" depart="500.00" from="106550091" to="-105159772#3" type="c__passenger"/>
    <trip id="c_251" depart="502.00" from="-78828544#5" to="105232053" type="c__passenger"/>
    <trip id="c_252" depart="504.00" from="-105159772#19" to="23173789#19" type="c__passenger"/>
    <trip id="c_253" depart="506.00" from="-128252747#4" to="-89562703#33" type="c__passenger"/>
    <trip id="c_254" depart="508.00" from="-105168446#2" to="-78828539#9" type="c__passenger"/>
    <trip id="c_255" depart="510.00" from="-25630529#7" to="-476424899#2" type="c__passenger"/>
    <trip id="c_256" depart="512.00" from="376718512#10" to="-78828539#9" type="c__passenger"/>
    <trip id="c_257" depart="514.00" from="33189690#6" to="476424899#10" type="c__passenger"/>
    <trip id="c_258" depart="516.00" from="-376714130#1" to="-106545960#6" type="c__passenger"/>
    <trip id="c_259" depart="518.00" from="-105159771#20" to="105232027#0" type="c__passenger"/>
    <trip id="c_260" depart="520.00" from="960080894" to="-710509165" type="c__passenger"/>
    <trip id="c_261" depart="522.00" from="23173789#10" to="400978937#5" type="c__passenger"/>
    <trip id="c_262" depart="524.00" from="23173789#13" to="376718512#8" type="c__passenger"/>
    <trip id="c_263" depart="526.00" from="89562661#11" to="-25630529#18" type="c__passenger"/>
    <trip id="c_264" depart="528.00" from="-105159771#23" to="-23627726#1" type="c__passenger"/>
    <trip id="c_265" depart="530.00" from="-106550095#7" to="25561514#2" type="c__passenger"/>
    <trip id="c_266" depart="532.00" from="105232030#0" to="-288839029" type="c__passenger"/>
    <trip id="c_267" depart="534.00" from="25630216#1" to="400978922#3" type="c__passenger"/>
    <trip id="c_268" depart="536.00" from="-25561499#22" to="106550090#23" type="c__passenger"/>
    <trip id="c_269" depart="538.00" from="33189690#17" to="-106550090#6" type="c__passenger"/>
    <trip id="c_270" depart="540.00" from="41691163#15" to="89562701#0" type="c__passenger"/>
    <trip id="c_271" depart="542.00" from="-106550077" to="-105159772#16" type="c__passenger"/>
    <trip id="c_272" depart="544.00" from="-41691152#6" to="25583275#3" type="c__passenger"/>
    <trip id="c_273" depart="546.00" from="89562675#0" to="-80444869#1" type="c__passenger"/>
    <trip id="c_274" depart="548.00" from="25630529#7" to="-106545954" type="c__passenger"/>
    <trip id="c_275" depart="550.00" from="25583275#5" to="1428609378#4" type="c__passenger"/>
    <trip id="c_276" depart="552.00" from="-106546033" to="400978927#4" type="c__passenger"/>
    <trip id="c_277" depart="554.00" from="49850017#0" to="106550086" type="c__passenger"/>
    <trip id="c_278" depart="556.00" from="-106550090#6" to="899914841#7" type="c__passenger"/>
    <trip id="c_279" depart="558.00" from="400978929#18" to="-701022113" type="c__passenger"/>
    <trip id="c_280" depart="560.00" from="-88141687#3" to="-78828539#19" type="c__passenger"/>
    <trip id="c_281" depart="562.00" from="100834037#2" to="-559446505#0" type="c__passenger"/>
    <trip id="c_282" depart="564.00" from="49840960#0" to="476424891#0" type="c__passenger"/>
    <trip id="c_283" depart="566.00" from="-106546096#1" to="89562689#4" type="c__passenger"/>
    <trip id="c_284" depart="568.00" from="1428541328" to="476424898#3" type="c__passenger"/>
    <trip id="c_285" depart="570.00" from="25630529#11" to="-89562661#10" type="c__passenger"/>
    <trip id="c_286" depart="572.00" from="288974406#6" to="89562703#0" type="c__passenger"/>
    <trip id="c_287" depart="574.00" from="-400978917#5" to="41691157#0" type="c__passenger"/>
    <trip id="c_288" depart="576.00" from="105159774#4" to="-904673614#7" type="c__passenger"/>
    <trip id="c_289" depart="578.00" from="-89562653" to="288974458#0" type="c__passenger"/>
    <trip id="c_290" depart="580.00" from="-400978917#2" to="560408571#0" type="c__passenger"/>
    <trip id="c_291" depart="582.00" from="476424891#2" to="-106545970#6" type="c__passenger"/>
    <trip id="c_292" depart="584.00" from="78828539#11" to="-376714133#0" type="c__passenger"/>
    <trip id="c_293" depart="586.00" from="-89562689#1" to="106550092" type="c__passenger"/>
    <trip id="c_294" depart="588.00" from="-78828534#8" to="-105159772#8" type="c__passenger"/>
    <trip id="c_295" depart="590.00" from="49850017#1" to="-25630213#0" type="c__passenger"/>
    <trip id="c_296" depart="592.00" from="-25630529#7" to="41691149#4" type="c__passenger"/>
    <trip id="c_297" depart="594.00" from="-476424899#9" to="78828539#24" type="c__passenger"/>
    <trip id="c_298" depart="596.00" from="25630216#12" to="-400978937#1" type="c__passenger"/>
    <trip id="c_299" depart="598.00" from="-105159761#2" to="89562661#16" type="c__passenger"/>
    <trip id="c_300" depart="600.00" from="-106545970#0" to="288974405" type="c__passenger"/>
    <trip id="c_301" depart="602.00" from="-899914841#4" to="400978914#12" type="c__passenger"/>
    <trip id="c_302" depart="604.00" from="25583275#5" to="23173860#0" type="c__passenger"/>
    <trip id="c_303" depart="606.00" from="-902777247#6" to="41691147#14" type="c__passenger"/>
    <trip id="c_304" depart="608.00" from="-106545982#3" to="-288974406#6" type="c__passenger"/>
    <trip id="c_305" depart="610.00" from="25583275#7" to="-41691157#3" type="c__passenger"/>
    <trip id="c_306" depart="612.00" from="106545952#0" to="-902777248#0" type="c__passenger"/>
    <trip id="c_307" depart="614.00" from="105159772#13" to="-89562655#3" type="c__passenger"/>
    <trip id="c_308" depart="616.00" from="33189690#12" to="-476424902" type="c__passenger"/>
    <trip id="c_309" depart="618.00" from="25630216#4" to="-400978929#12" type="c__passenger"/>