<?xml version="1.0" encoding="UTF-8"?>

<!-- generated on 2026-02-11 00:54:10.745794 by Eclipse SUMO randomTrips.py v1_25_0+0000-ac6c5a6752d
<configuration>
    <net-file value="osm.net.xml"/>
    <output-trip-file value="trips/carQuiet.trips.xml"/>
    <prefix value="c_"/>
    <trip-attributes value="guiShape='passenger'"/>
    <vehicle-class value="passenger"/>
    <end value="6000.0"/>
    <period value="3.0"/>
</configuration>
-->

<routes xmlns:xsi="http://www.w3.org/2001/XMLSchema-instance" xsi:noNamespaceSchemaLocation="http://sumo.dlr.de/xsd/routes_file.xsd">
    <vType id="c__passenger" vClass="passenger" guiShape='passenger'/>
    <trip id="c_0" depart="0.00" from="173522653#0" to="-105159772#17" type="c__passenger"/>
    <trip id="c_1" depart="3.00" from="-400978914#2" to="-288839028#8" type="c__passenger"/>
    <trip id="c_2" depart="6.00" from="288974405" to="25561499#34" type="c__passenger"/>
    <trip id="c_3" depart="9.00" from="78828539#22" to="-106545982#5" type="c__passenger"/>
    <trip id="c_4" depart="12.00" from="-878571563" to="-105159774#3" type="c__passenger"/>
    <trip id="c_5" depart="15.00" from="-25630529#24" to="105159771#24" type="c__passenger"/>
    <trip id="c_6" depart="18.00" from="-105159772#3" to="-25630216#2" type="c__passenger"/>
    <trip id="c_7" depart="21.00" from="213545296#2" to="105232030#2" type="c__passenger"/>
    <trip id="c_8" depart="24.00" from="-25630529#7" to="106550078#2" type="c__passenger"/>
    <trip id="c_9" depart="27.00" from="41691147#13" to="-105159760#3" type="c__passenger"/>
    <trip id="c_10" depart="30.00" from="40989954#3" to="25630216#10" type="c__passenger"/>
    <trip id="c_11" depart="33.00" from="-476424898#2" to="-23173789#5" type="c__passenger"/>
    <trip id="c_12" depart="36.00" from="89562661#6" to="-476424900#1" type="c__passenger"/>
    <trip id="c_13" depart="39.00" from="-106546019#6" to="-106546085" type="c__passenger"/>
    <trip id="c_14" depart="42.00" from="476424899#2" to="106550095#1" type="c__passenger"/>
    <trip id="c_15" depart="45.00" from="40989963#0" to="288974406#2" type="c__passenger"/>
    <trip id="c_16" depart="48.00" from="105168401#0" to="89562703#26" type="c__passenger"/>
    <trip id="c_17" depart="51.00" from="-78828534#0" to="105232040#1" type="c__passenger"/>
    <trip id="c_18" depart="54.00" from="41691163#2" to="1416317269#1" type="c__passenger"/>
    <trip id="c_19" depart="57.00" from="559446505#1" to="106546019#1" type="c__passenger"/>
    <trip id="c_20" depart="60.00" from="25630215#0" to="-105168446#1" type="c__passenger"/>
    <trip id="c_21" depart="63.00" from="-288794737#3" to="-40989444" type="c__passenger"/>
    <trip id="c_22" depart="66.00" from="-106545960#6" to="-288974454#0" type="c__passenger"/>
    <trip id="c_23" depart="69.00" from="-106550068#1" to="-400978927#0" type="c__passenger"/>
    <trip id="c_24" depart="72.00" from="1428541327" to="-745826132#3" type="c__passenger"/>
    <trip id="c_25" depart="75.00" from="-711802514#11" to="-25630529#24" type="c__passenger"/>
    <trip id="c_26" depart="78.00" from="-376714133#5" to="89562655#2" type="c__passenger"/>
    <trip id="c_27" depart="81.00" from="213545296#1" to="106620698" type="c__passenger"/>
    <trip id="c_28" depart="84.00" from="-23627726#1" to="288974405" type="c__passenger"/>
    <trip id="c_29" depart="87.00" from="-23173789#17" to="-78828539#30" type="c__passenger"/>
    <trip id="c_30" depart="90.00" from="902777249#1" to="213545296#0" type="c__passenger"/>
    <trip id="c_31" depart="93.00" from="105232027#6" to="25583275#14" type="c__passenger"/>
    <trip id="c_32" depart="96.00" from="476424898#1" to="400978917#9" type="c__passenger"/>
    <trip id="c_33" depart="99.00" from="-288794737#6" to="-105159774#8" type="c__passenger"/>
    <trip id="c_34" depart="102.00" from="-41691152#0" to="-400978917#1" type="c__passenger"/>
    <trip id="c_35" depart="105.00" from="-25630218#9" to="89562658#16" type="c__passenger"/>
    <trip id="c_36" depart="108.00" from="715093627#1" to="-41691163#10" type="c__passenger"/>
    <trip id="c_37" depart="111.00" from="225682971#0" to="-78832776#0" type="c__passenger"/>
    <trip id="c_38" depart="114.00" from="80444869#0" to="-89562703#26" type="c__passenger"/>
    <trip id="c_39" depart="117.00" from="-376714133#0" to="-33189690#17" type="c__passenger"/>
    <trip id="c_40" depart="120.00" from="105232030#17" to="-400978914#0" type="c__passenger"/>
    <trip id="c_41" depart="123.00" from="106545970#4" to="78828551#1" type="c__passenger"/>
    <trip id="c_42" depart="126.00" from="-78828549#2" to="-288794788#1" type="c__passenger"/>
    <trip id="c_43" depart="129.00" from="904673614#7" to="105159772#13" type="c__passenger"/>
    <trip id="c_44" depart="132.00" from="-106546013#4" to="-105168446#4" type="c__passenger"/>
    <trip id="c_45" depart="135.00" from="-106550090#15" to="1428541327" type="c__passenger"/>
    <trip id="c_46" depart="138.00" from="400978929#13" to="-893735984" type="c__passenger"/>
    <trip id="c_47" depart="141.00" from="-105232030#6" to="-78828539#5" type="c__passenger"/>
    <trip id="c_48" depart="144.00" from="904673614#5" to="105168427#28" type="c__passenger"/>
    <trip id="c_49" depart="147.00" from="89562703#2" to="645739342#1" type="c__passenger"/>
    <trip id="c_50" depart="150.00" from="-105159764#4" to="288794737#2" type="c__passenger"/>
    <trip id="c_51" depart="153.00" from="25561499#23" to="105232027#14" type="c__passenger"/>
    <trip id="c_52" depart="156.00" from="-376714133#4" to="213545296#10" type="c__passenger"/>
    <trip id="c_53" depart="159.00" from="-106550090#18" to="-89562658#5" type="c__passenger"/>
    <trip id="c_54" depart="162.00" from="-89562661#16" to="89562661#6" type="c__passenger"/>
    <trip id="c_55" depart="165.00" from="715093627#0" to="-400978914#1" type="c__passenger"/>
    <trip id="c_56" depart="168.00" from="-931822795#0" to="-25561514#0" type="c__passenger"/>
    <trip id="c_57" depart="171.00" from="80444862" to="725476479#1" type="c__passenger"/>
    <trip id="c_58" depart="174.00" from="-400978940#0" to="213545293.71" type="c__passenger"/>
    <trip id="c_59" depart="177.00" from="106550090#18" to="-23173789#14" type="c__passenger"/>
    <trip id="c_60" depart="180.00" from="33189690#21" to="105232027#5" type="c__passenger"/>
    <trip id="c_61" depart="183.00" from="400978914#2" to="105168427#9" type="c__passenger"/>
    <trip id="c_62" depart="186.00" from="-100834037#1" to="-44014594#0" type="c__passenger"/>
    <trip id="c_63" depart="189.00" from="-105159771#23" to="88141693#3" type="c__passenger"/>
    <trip id="c_64" depart="192.00" from="745826132#0" to="476424891#4" type="c__passenger"/>
    <trip id="c_65" depart="195.00" from="-41691147#10" to="-105232030#17" type="c__passenger"/>
    <trip id="c_66" depart="198.00" from="725476480#1" to="89562658#8" type="c__passenger"/>
    <trip id="c_67" depart="201.00" from="-106545970#8" to="100834037#3" type="c__passenger"/>
    <trip id="c_68" depart="204.00" from="-105232045#0" to="376714133#0" type="c__passenger"/>
    <trip id="c_69" depart="207.00" from="33189770" to="-1416317674" type="c__passenger"/>
    <trip id="c_70" depart="210.00" from="-89562703#24" to="105232030#9" type="c__passenger"/>
    <trip id="c_71" depart="213.00" from="-376714133#1" to="745826132#0" type="c__passenger"/>
    <trip id="c_72" depart="216.00" from="-88141673#0" to="-25676052#0" type="c__passenger"/>
    <trip id="c_73" depart="219.00" from="105168401#7" to="288974406#2" type="c__passenger"/>
    <trip id="c_74" depart="222.00" from="-25630213#9" to="-41691155#6" type="c__passenger"/>
    <trip id="c_75" depart="225.00" from="904673614#3" to="23173787" type="c__passenger"/>
    <trip id="c_76" depart="228.00" from="-89562654#4" to="105159774#7" type="c__passenger"/>
    <trip id="c_77" depart="231.00" from="-106550096" to="-288974406#0" type="c__passenger"/>
    <trip id="c_78" depart="234.00" from="-476424891#7" to="106550077" type="c__passenger"/>
    <trip id="c_79" depart="237.00" from="-288839028#0" to="-288839028#1" type="c__passenger"/>
    <trip id="c_80" depart="240.00" from="-105232045#6" to="173522653#0" type="c__passenger"/>
    <trip id="c_81" depart="243.00" from="-288794737#6" to="78832776#1" type="c__passenger"/>
    <trip id="c_82" depart="246.00" from="49850018#2" to="-105232046" type="c__passenger"/>
    <trip id="c_83" depart="249.00" from="-288974406#6" to="25561499#16" type="c__passenger"/>
    <trip id="c_84" depart="252.00" from="-25630529#13" to="-1428609378#4" type="c__passenger"/>
    <trip id="c_85" depart="255.00" from="88213892" to="106545970#8" type="c__passenger"/>
    <trip id="c_86" depart="258.00" from="-89562703#2" to="400978929#13" type="c__passenger"/>
    <trip id="c_87" depart="261.00" from="40989963#1" to="-25630213#1" type="c__passenger"/>
    <trip id="c_88" depart="264.00" from="-106546050" to="-89562658#16" type="c__passenger"/>
    <trip id="c_89" depart="267.00" from="-88141673#2" to="-899914841#0" type="c__passenger"/>
    <trip id="c_90" depart="270.00" from="288794737#3" to="25561499#26" type="c__passenger"/>
    <trip id="c_91" depart="273.00" from="899914841#3" to="-106550073" type="c__passenger"/>
    <trip id="c_92" depart="276.00" from="-78828551#4" to="-494611378" type="c__passenger"/>
    <trip id="c_93" depart="279.00" from="559446505#1" to="-33189690#3" type="c__passenger"/>
    <trip id="c_94" depart="282.00" from="-25583275#10" to="-89562689#2" type="c__passenger"/>
    <trip id="c_95" depart="285.00" from="-878571563" to="-400978927#1" type="c__passenger"/>
    <trip id="c_96" depart="288.00" from="-289548195" to="88141679#0" type="c__passenger"/>
    <trip id="c_97" depart="291.00" from="-89562658#10" to="705955085#0" type="c__passenger"/>
    <trip id="c_98" depart="294.00" from="105168446#4" to="-105232027#14" type="c__passenger"/>
    <trip id="c_99" depart="297.00" from="931822795#1" to="476424898#2" type="c__passenger"/>
    <trip id="c_100" depart="300.00" from="89562703#10" to="88141687#3" type="c__passenger"/>
    <trip id="c_101" depart="303.00" from="476424899#8" to="-25561499#12" type="c__passenger"/>
    <trip id="c_102" depart="306.00" from="-899914841#10" to="-283440274" type="c__passenger"/>
    <trip id="c_103" depart="309.00" from="-78828551#1" to="-105232030#20" type="c__passenger"/>
    <trip id="c_104" depart="312.00" from="-78828534#11" to="902777247#2" type="c__passenger"/>
    <trip id="c_105" depart="315.00" from="-376714133#1" to="400978929#1" type="c__passenger"/>
    <trip id="c_106" depart="318.00" from="-89562661#19" to="-89562653" type="c__passenger"/>
    <trip id="c_107" depart="321.00" from="89562661#8" to="904673614#4" type="c__passenger"/>
    <trip id="c_108" depart="324.00" from="105232027#4" to="288780409#1" type="c__passenger"/>
    <trip id="c_109" depart="327.00" from="-213545296#9" to="-41691147#10" type="c__passenger"/>
    <trip id="c_110" depart="330.00" from="89562703#10" to="106546023" type="c__passenger"/>
    <trip id="c_111" depart="333.00" from="105168427#17" to="33189593#1" type="c__passenger"/>
    <trip id="c_112" depart="336.00" from="-105232030#12" to="106546081#0" type="c__passenger"/>
    <trip id="c_113" depart="339.00" from="100834037#1" to="49850018#2" type="c__passenger"/>
    <trip id="c_114" depart="342.00" from="-225682975#1" to="89562689#0" type="c__passenger"/>
    <trip id="c_115" depart="345.00" from="-106545960#6" to="-25583275#21" type="c__passenger"/>
    <trip id="c_116" depart="348.00" from="106546024#0" to="25561499#30" type="c__passenger"/>
    <trip id="c_117" depart="351.00" from="-288839029" to="-128252747#3" type="c__passenger"/>
    <trip id="c_118" depart="354.00" from="78828539#19" to="-33189690#17" type="c__passenger"/>
    <trip id="c_119" depart="357.00" from="106546023" to="1416317269#3" type="c__passenger"/>
    <trip id="c_120" depart="360.00" from="-878249329#2" to="106546070" type="c__passenger"/>
    <trip id="c_121" depart="363.00" from="105159771#24" to="89562654#2" type="c__passenger"/>
    <trip id="c_122" depart="366.00" from="-25630216#0" to="283440274" type="c__passenger"/>
    <trip id="c_123" depart="369.00" from="-288974418" to="-78832776#0" type="c__passenger"/>
    <trip id="c_124" depart="372.00" from="23627726#1" to="-41691147#7" type="c__passenger"/>
    <trip id="c_125" depart="375.00" from="-41691152#10" to="33189690#17" type="c__passenger"/>
    <trip id="c_126" depart="378.00" from="-105232048" to="-89562703#24" type="c__passenger"/>
    <trip id="c_127" depart="381.00" from="904673614#9" to="904673614#6" type="c__passenger"/>
    <trip id="c_128" depart="384.00" from="-106545952#0" to="-26921982#2" type="c__passenger"/>
    <trip id="c_129" depart="387.00" from="-376714133#1" to="89562653" type="c__passenger"/>
    <trip id="c_130" depart="390.00" from="745826132#6" to="78828534#7" type="c__passenger"/>
    <trip id="c_131" depart="393.00" from="-711802514#10" to="-23173860#2" type="c__passenger"/>
    <trip id="c_132" depart="396.00" from="41691163#9" to="25630218#2" type="c__passenger"/>
    <trip id="c_133" depart="399.00" from="106550090#3" to="902777248#1" type="c__passenger"/>
    <trip id="c_134" depart="402.00" from="213545298#1" to="-105159760#6" type="c__passenger"/>
    <trip id="c_135" depart="405.00" from="41691152#1" to="-41691147#4" type="c__passenger"/>
    <trip id="c_136" depart="408.00" from="23173789#17" to="89562656#1" type="c__passenger"/>
    <trip id="c_137" depart="411.00" from="-1416317269#4" to="-106620701#0" type="c__passenger"/>
    <trip id="c_138" depart="414.00" from="-106550086" to="105232041#1" type="c__passenger"/>
    <trip id="c_139" depart="417.00" from="-400978913#4" to="106550095#5" type="c__passenger"/>
    <trip id="c_140" depart="420.00" from="25630529#19" to="-25630529#10" type="c__passenger"/>
    <trip id="c_141" depart="423.00" from="1416317677" to="-400978914#11" type="c__passenger"/>
    <trip id="c_142" depart="426.00" from="-902777247#4" to="78832776#1" type="c__passenger"/>
    <trip id="c_143" depart="429.00" from="476424899#0" to="-106546024#1" type="c__passenger"/>
    <trip id="c_144" depart="432.00" from="-88141673#2" to="-400978924#2" type="c__passenger"/>
    <trip id="c_145" depart="435.00" from="-105159760#1" to="400978914#6" type="c__passenger"/>
    <trip id="c_146" depart="438.00" from="1428609378#2" to="-400978913#4" type="c__passenger"/>
    <trip id="c_147" depart="441.00" from="288974411" to="105232040#0" type="c__passenger"/>
    <trip id="c_148" depart="444.00" from="-88141683" to="-105159761#2" type="c__passenger"/>
    <trip id="c_149" depart="447.00" from="-106545959#3" to="78828539#16" type="c__passenger"/>
    <trip id="c_150" depart="450.00" from="78828551#0" to="105232030#23" type="c__passenger"/>
    <trip id="c_151" depart="453.00" from="419958545#0" to="106546047" type="c__passenger"/>
    <trip id="c_152" depart="456.00" from="-213545289#1" to="-1416317269#6" type="c__passenger"/>
    <trip id="c_153" depart="459.00" from="-41691147#11" to="78828551#3" type="c__passenger"/>
    <trip id="c_154" depart="462.00" from="400978936#1" to="645739342#1" type="c__passenger"/>
    <trip id="c_155" depart="465.00" from="78828544#1" to="-25630529#25" type="c__passenger"/>
    <trip id="c_156" depart="468.00" from="-288974460#3" to="-106550090#14" type="c__passenger"/>
    <trip id="c_157" depart="471.00" from="400978914#8" to="78828539#2" type="c__passenger"/>
    <trip id="c_158" depart="474.00" from="-78828552#3" to="1416317269#6" type="c__passenger"/>
    <trip id="c_159" depart="477.00" from="-213545296#9" to="88213886#0" type="c__passenger"/>
    <trip id="c_160" depart="480.00" from="560408571#0" to="89562703#4" type="c__passenger"/>
    <trip id="c_161" depart="483.00" from="41691147#18" to="78828539#11" type="c__passenger"/>
    <trip id="c_162" depart="486.00" from="-105159772#16" to="288974454#2" type="c__passenger"/>
    <trip id="c_163" depart="489.00" from="-41691163#5" to="88213888" type="c__passenger"/>
    <trip id="c_164" depart="492.00" from="40989449#1" to="710509165" type="c__passenger"/>
    <trip id="c_165" depart="495.00" from="41691147#18" to="-400978914#8" type="c__passenger"/>
    <trip id="c_166" depart="498.00" from="400978923#2" to="-106550090#3" type="c__passenger"/>
    <trip id="c_167" depart="501.00" from="711802514#11" to="560408571#1" type="c__passenger"/>
    <trip id="c_168" depart="504.00" from="-26921982#2" to="41691155#6" type="c__passenger"/>
    <trip id="c_169" depart="507.00" from="-89562674" to="-41691152#10" type="c__passenger"/>
    <trip id="c_170" depart="510.00" from="400978930" to="-288974406#6" type="c__passenger"/>
    <trip id="c_171" depart="513.00" from="-105159772#13" to="-25630214" type="c__passenger"/>
    <trip id="c_172" depart="516.00" from="-41691163#19" to="710509165" type="c__passenger"/>
    <trip id="c_173" depart="519.00" from="89562697#0" to="-400978927#4" type="c__passenger"/>
    <trip id="c_174" depart="522.00" from="191555413#1" to="-80444869#1" type="c__passenger"/>
    <trip id="c_175" depart="525.00" from="89562711#0" to="105232027#12" type="c__passenger"/>
    <trip id="c_176" depart="528.00" from="89562654#2" to="-106620701#0" type="c__passenger"/>
    <trip id="c_177" depart="531.00" from="89562703#16" to="-25561514#0" type="c__passenger"/>
    <trip id="c_178" depart="534.00" from="89562685" to="-400978914#4" type="c__passenger"/>
    <trip id="c_179" depart="537.00" from="-106550090#10" to="-89562658#5" type="c__passenger"/>
    <trip id="c_180" depart="540.00" from="288794737#2" to="-41691157#3" type="c__passenger"/>
    <trip id="c_181" depart="543.00" from="106550090#11" to="105159772#19" type="c__passenger"/>
    <trip id="c_182" depart="546.00" from="-78828539#14" to="106546019#0" type="c__passenger"/>
    <trip id="c_183" depart="549.00" from="-33189690#13" to="25630529#2" type="c__passenger"/>
    <trip id="c_184" depart="552.00" from="-100834037#3" to="88141687#1" type="c__passenger"/>
    <trip id="c_185" depart="555.00" from="105168401#6" to="288780411#2" type="c__passenger"/>
    <trip id="c_186" depart="558.00" from="288974415" to="25561499#20" type="c__passenger"/>
    <trip id="c_187" depart="561.00" from="-645739342#0" to="-105232045#6" type="c__passenger"/>
    <trip id="c_188" depart="564.00" from="23173789#3" to="-476424898#3" type="c__passenger"/>
    <trip id="c_189" depart="567.00" from="-41691149#4" to="494611386#1" type="c__passenger"/>
    <trip id="c_190" depart="570.00" from="25630529#23" to="-41691149#0" type="c__passenger"/>
    <trip id="c_191" depart="573.00" from="-41691147#17" to="-878249329#6" type="c__passenger"/>
    <trip id="c_192" depart="576.00" from="-78828551#4" to="-40989963#1" type="c__passenger"/>
    <trip id="c_193" depart="579.00" from="-113339441#1" to="-88213892" type="c__passenger"/>
    <trip id="c_194" depart="582.00" from="89562655#0" to="25561499#4" type="c__passenger"/>
    <trip id="c_195" depart="585.00" from="78828549#2" to="128252748#1" type="c__passenger"/>
    <trip id="c_196" depart="588.00" from="-40989449#1" to="105232030#4" type="c__passenger"/>
    <trip id="c_197" depart="591.00" from="-100834037#0" to="-400978937#4" type="c__passenger"/>
    <trip id="c_198" depart="594.00" from="-88141691#0" to="106546024#1" type="c__passenger"/>
    <trip id="c_199" depart="597.00" from="213545300" to="-89562705#2" type="c__passenger"/>
    <trip id="c_200" depart="600.00" from="-89562658#0" to="-283440274" type="c__passenger"/>
    <trip id="c_201" depart="603.00" from="-89562703#20" to="78828552#13" type="c__passenger"/>
    <trip id="c_202" depart="606.00" from="400978936#1" to="-25561499#21" type="c__passenger"/>
    <trip id="c_203" depart="609.00" from="-106545970#6" to="105159774#2" type="c__passenger"/>
    <trip id="c_204" depart="612.00" from="1416317676#0" to="-476424899#9" type="c__passenger"/>
    <trip id="c_205" depart="615.00" from="41691152#12" to="33189690#14" type="c__passenger"/>
    <trip id="c_206" depart="618.00" from="23627726#3" to="-288974406#0" type="c__passenger"/>
    <trip id="c_207" depart="621.00" from="-25630213#3" to="-105159772#16" type="c__passenger"/>
    <trip id="c_208" depart="624.00" from="-288974456#2" to="-904673614#0" type="c__passenger"/>
    <trip id="c_209" depart="627.00" from="476424900#0" to="-106545959#2" type="c__passenger"/>
    <trip id="c_210" depart="630.00" from="-80733949#1" to="1456785327" type="c__passenger"/>
    <trip id="c_211" depart="633.00" from="-25583275#21" to="25630215#3" type="c__passenger"/>
    <trip id="c_212" depart="636.00" from="-904673614#13" to="-33189690#10" type="c__passenger"/>
    <trip id="c_213" depart="639.00" from="225682971#1" to="-105159760#14" type="c__passenger"/>
    <trip id="c_214" depart="642.00" from="288974456#2" to="400978914#2" type="c__passenger"/>
    <trip id="c_215" depart="645.00" from="-106550085" to="-89562655#0" type="c__passenger"/>
    <trip id="c_216" depart="648.00" from="-25561499#15" to="89562675#0" type="c__passenger"/>
    <trip id="c_217" depart="651.00" from="105159771#11" to="-105232027#14" type="c__passenger"/>
    <trip id="c_218" depart="654.00" from="-288974460#2" to="494611386#2" type="c__passenger"/>
    <trip id="c_219" depart="657.00" from="-89562661#4" to="41691147#10" type="c__passenger"/>
    <trip id="c_220" depart="660.00" from="23173860#1" to="902777248#2" type="c__passenger"/>
    <trip id="c_221" depart="663.00" from="106546024#1" to="89562661#14" type="c__passenger"/>
    <trip id="c_222" depart="666.00" from="78828539#21" to="113339441#0" type="c__passenger"/>
    <trip id="c_223" depart="669.00" from="25630529#23" to="105159771#23" type="c__passenger"/>
    <trip id="c_224" depart="672.00" from="41691163#23" to="105232030#29" type="c__passenger"/>
    <trip id="c_225" depart="675.00" from="78828539#5" to="288974460#1" type="c__passenger"/>
    <trip id="c_226" depart="678.00" from="-89562703#23" to="-376718512#2" type="c__passenger"/>
    <trip id="c_227" depart="681.00" from="-288974458#0" to="213545289#2" type="c__passenger"/>
    <trip id="c_228" depart="684.00" from="33189770" to="105168401#6" type="c__passenger"/>
    <trip id="c_229" depart="687.00" from="128252750#0" to="-400978922#3" type="c__passenger"/>
    <trip id="c_230" depart="690.00" from="-106545960#10" to="-400978937#2" type="c__passenger"/>
    <trip id="c_231" depart="693.00" from="-400978913#2" to="-41691163#25" type="c__passenger"/>
    <trip id="c_232" depart="696.00" from="105168427#10" to="-213545294" type="c__passenger"/>
    <trip id="c_233" depart="699.00" from="-288839028#10" to="25630213#9" type="c__passenger"/>
    <trip id="c_234" depart="702.00" from="25630215#3" to="-105232033#2" type="c__passenger"/>
    <trip id="c_235" depart="705.00" from="-78832776#0" to="105232030#12" type="c__passenger"/>
    <trip id="c_236" depart="708.00" from="-876526142#1" to="-25630529#18" type="c__passenger"/>
    <trip id="c_237" depart="711.00" from="-878249329#4" to="78832776#0" type="c__passenger"/>
    <trip id="c_238" depart="714.00" from="106545970#2" to="25630215#1" type="c__passenger"/>
    <trip id="c_239" depart="717.00" from="49840960#1" to="376718512#4" type="c__passenger"/>
    <trip id="c_240" depart="720.00" from="-78828534#2" to="-105159760#14" type="c__passenger"/>
    <trip id="c_241" depart="723.00" from="-494611386#0" to="33189690#2" type="c__passenger"/>
    <trip id="c_242" depart="726.00" from="494611384" to="89562661#4" type="c__passenger"/>
    <trip id="c_243" depart="729.00" from="-878249329#2" to="31696647" type="c__passenger"/>
    <trip id="c_244" depart="732.00" from="105168427#28" to="106550095#0" type="c__passenger"/>
    <trip id="c_245" depart="735.00" from="-25630529#7" to="-288794788#1" type="c__passenger"/>
    <trip id="c_246" depart="738.00" from="-893735984" to="-105159774#2" type="c__passenger"/>
    <trip id="c_247" depart="741.00" from="-476424891#0" to="25561499#9" type="c__passenger"/>
    <trip id="c_248" depart="744.00" from="-78828552#14" to="-25541837#0" type="c__passenger"/>
    <trip id="c_249" depart="747.00" from="-89562694" to="-1416317269#6" type="c__passenger"/>
    <trip id="c_250" depart="750.00" from="113339441#1" to="-105159772#5" type="c__passenger"/>
    <trip id="c_251" depart="753.00" from="-78828539#6" to="106545960#5" type="c__passenger"/>
    <trip id="c_252" depart="756.00" from="-105159772#5" to="213545296#3" type="c__passenger"/>
    <trip id="c_253" depart="759.00" from="-1416317269#8" to="-89562703#4" type="c__passenger"/>
    <trip id="c_254" depart="762.00" from="-105232027#11" to="-78828539#28" type="c__passenger"/>
    <trip id="c_255" depart="765.00" from="-25630529#0" to="-476424891#7" type="c__passenger"/>
    <trip id="c_256" depart="768.00" from="33189690#19" to="-78828539#28" type="c__passenger"/>
    <trip id="c_257" depart="771.00" from="288974457#1" to="476424891#4" type="c__passenger"/>
    <trip id="c_258" depart="774.00" from="-33189593#0" to="-106545970#5" type="c__passenger"/>
    <trip id="c_259" depart="777.00" from="-105159771#23" to="105232027#5" type="c__passenger"/>
    <trip id="c_260" depart="780.00" from="960080894" to="-560408569#1" type="c__passenger"/>
    <trip id="c_261" depart="783.00" from="213545296#3" to="400978924#3" type="c__passenger"/>
    <trip id="c_262" depart="786.00" from="213545296#6" to="33189690#21" type="c__passenger"/>
    <trip id="c_263" depart="789.00" from="89562658#5" to="-25630216#3" type="c__passenger"/>
    <trip id="c_264" depart="792.00" from="-105159771#4" to="-23173789#13" type="c__passenger"/>
    <trip id="c_265" depart="795.00" from="-113339437#1" to="25561499#18" type="c__passenger"/>
    <trip id="c_266" depart="798.00" from="105232030#28" to="-288794737#4" type="c__passenger"/>
    <trip id="c_267" depart="801.00" from="25583275#6" to="400978913#2" type="c__passenger"/>
    <trip id="c_268" depart="804.00" from="-23173860#3" to="106550096" type="c__passenger"/>
    <trip id="c_269" depart="807.00" from="288974454#6" to="-106620686#0" type="c__passenger"/>
    <trip id="c_270" depart="810.00" from="41691152#2" to="89562694" type="c__passenger"/>
    <trip id="c_271" depart="813.00" from="-106550090#0" to="-105159772#3" type="c__passenger"/>
    <trip id="c_272" depart="816.00" from="-41691149#1" to="25561499#4" type="c__passenger"/>
    <trip id="c_273" depart="819.00" from="89562661#9" to="-80051929" type="c__passenger"/>
    <trip id="c_274" depart="822.00" from="25630529#12" to="-106545960#2" type="c__passenger"/>
    <trip id="c_275" depart="825.00" from="25561514#2" to="1428541327" type="c__passenger"/>
    <trip id="c_276" depart="828.00" from="-106550073" to="400978914#9" type="c__passenger"/>
    <trip id="c_277" depart="831.00" from="476424900#1" to="106550090#3" type="c__passenger"/>
    <trip id="c_278" depart="834.00" from="-106550096" to="899914841#4" type="c__passenger"/>
    <trip id="c_279" depart="837.00" from="400978917#4" to="-559446505#0" type="c__passenger"/>
    <trip id="c_280" depart="840.00" from="-88141687#1" to="-78828534#8" type="c__passenger"/>
    <trip id="c_281" depart="843.00" from="105159760#10" to="-494758078" type="c__passenger"/>
    <trip id="c_282" depart="846.00" from="476424900#0" to="41691163#2" type="c__passenger"/>
    <trip id="c_283" depart="849.00" from="-106550083" to="89562689#0" type="c__passenger"/>
    <trip id="c_284" depart="852.00" from="1428541327" to="419958546#1" type="c__passenger"/>
    <trip id="c_285" depart="855.00" from="25630216#1" to="-89562658#9" type="c__passenger"/>
    <trip id="c_286" depart="858.00" from="288839028#5" to="89562697#0" type="c__passenger"/>
    <trip id="c_287" depart="861.00" from="-376718512#8" to="41691149#7" type="c__passenger"/>
    <trip id="c_288" depart="864.00" from="105168401#5" to="-931822795#0" type="c__passenger"/>
    <trip id="c_289" depart="867.00" from="-893379337#1" to="288974406#4" type="c__passenger"/>
    <trip id="c_290" depart="870.00" from="-376718512#1" to="49850017#8" type="c__passenger"/>
    <trip id="c_291" depart="873.00" from="41691163#23" to="-106545982#5" type="c__passenger"/>
    <trip id="c_292" depart="876.00" from="78828534#0" to="-33189690#10" type="c__passenger"/>
    <trip id="c_293" depart="879.00" from="-89562689#3" to="106620701#3" type="c__passenger"/>
    <trip id="c_294" depart="882.00" from="-78828534#11" to="-105159774#1" type="c__passenger"/>
    <trip id="c_295" depart="885.00" from="476424900#2" to="-25583275#11" type="c__passenger"/>
    <trip id="c_296" depart="888.00" from="-25630529#1" to="40989954#0" type="c__passenger"/>
    <trip id="c_297" depart="891.00" from="-476424898#2" to="78828539#0" type="c__passenger"/>
    <trip id="c_298" depart="894.00" from="25630213#1" to="-400978924#1" type="c__passenger"/>
    <trip id="c_299" depart="897.00" from="-105159761#3" to="89562661#1" type="c__passenger"/>
    <trip id="c_300" depart="900.00" from="-106545970#8" to="288794737#1" type="c__passenger"/>
    <trip id="c_301" depart="903.00" from="-902777247#4" to="376714130#0" type="c__passenger"/>
    <trip id="c_302" depart="906.00" from="25561514#2" to="213545298#1" type="c__passenger"/>
    <trip id="c_303" depart="909.00" from="-902777248#3" to="400978940#1" type="c__passenger"/>
    <trip id="c_304" depart="912.00" from="-106546019#7" to="-288839028#11" type="c__passenger"/>
    <trip id="c_305" depart="915.00" from="25583275#1" to="-41691152#12" type="c__passenger"/>
    <trip id="c_306" depart="918.00" from="106545960#9" to="-902777248#3" type="c__passenger"/>
    <trip id="c_307" depart="921.00" from="105159772#8" to="-89562655#0" type="c__passenger"/>
    <trip id="c_308" depart="924.00" from="288974454#0" to="-476424898#6" type="c__passenger"/>