<?xml version="1.0" encoding="UTF-8"?>

<!-- generated on 2026-02-11 00:54:14.689918 by Eclipse SUMO randomTrips.py v1_25_0+0000-ac6c5a6752d
<configuration>
    <net-file value="osm.net.xml"/>
    <output-trip-file value="trips/truckDefault.trips.xml"/>
    <prefix value="t_"/>
    <trip-attributes value="guiShape='truck'"/>
    <vehicle-class value="truck"/>
    <end value="6000.0"/>
    <period value="20.0"/>
</configuration>
-->

<routes xmlns:xsi="http://www.w3.org/2001/XMLSchema-instance" xsi:noNamespaceSchemaLocation="http://sumo.dlr.de/xsd/routes_file.xsd">
    <vType id="t__truck" vClass="truck" guiShape='truck'/>
    <trip id="t_0" depart="0.00" from="173522653#0" to="-105159772#17" type="t__truck"/>
    <trip id="t_1" depart="20.00" from="-400978914#2" to="-288839028#8" type="t__truck"/>
    <trip id="t_2" depart="40.00" from="288974405" to="25561499#34" type="t__truck"/>
    <trip id="t_3" depart="60.00" from="78828539#22" to="-106545982#5" type="t__truck"/>
    <trip id="t_4" depart="80.00" from="-878571563" to="-105159774#3" type="t__truck"/>
    <trip id="t_5" depart="100.00" from="-25630529#24" to="105159771#24" type="t__truck"/>
    <trip id="t_6" depart="120.00" from="-105159772#3" to="-25630216#2" type="t__truck"/>
    <trip id="t_7" depart="140.00" from="213545296#2" to="105232030#2" type="t__truck"/>
    <trip id="t_8" depart="160.00" from="-25630529#7" to="106550078#2" type="t__truck"/>
    <trip id="t_9" depart="180.00" from="41691147#13" to="-105159760#3" type="t__truck"/>
    <trip id="t_10" depart="200.00" from="40989954#3" to="25630216#10" type="t__truck"/>
    <trip id="t_11" depart="220.00" from="-476424898#2" to="-23173789#5" type="t__truck"/>
    <trip id="t_12" depart="240.00" from="89562661#6" to="-476424900#1" type="t__truck"/>
    <trip id="t_13" depart="260.00" from="-106546019#6" to="-106546085" type="t__truck"/>
    <trip id="t_14" depart="280.00" from="476424899#2" to="106550095#1" type="t__truck"/>
    <trip id="t_15" depart="300.00" from="40989963#0" to="288974406#2" type="t__truck"/>
    <trip id="t_16" depart="320.00" from="105168401#0" to="89562703#26" type="t__truck"/>
    <trip id="t_17" depart="340.00" from="-78828534#0" to="105232040#1" type="t__truck"/>
    <trip id="t_18" depart="360.00" from="41691163#2" to="1416317269#1" type="t__truck"/>
    <trip id="t_19" depart="380.00" from="559446505#1" to="106546019#1" type="t__truck"/>
    <trip id="t_20" depart="400.00" from="25630215#0" to="-105168446#1" type="t__truck"/>
    <trip id="t_21" depart="420.00" from="-288794737#3" to="-40989444" type="t__truck"/>
    <trip id="t_22" depart="440.00" from="-106545960#6" to="-288974454#0" type="t__truck"/>
    <trip id="t_23" depart="460.00" from="-106550068#1" to="-400978927#0" type="t__truck"/>
    <trip id="t_24" depart="480.00" from="1428541327" to="-745826132#3" type="t__truck"/>
    <trip id="t_25" depart="500.00" from="-711802514#11" to="-25630529#24" type="t__truck"/>
    <trip id="t_26" depart="520.00" from="-376714133#5" to="89562655#2" type="t__truck"/>
    <trip id="t_27" depart="540.00" from="213545296#1" to="106620698" type="t__truck"/>
    <trip id="t_28" depart="560.00" from="-23627726#1" to="288974405" type="t__truck"/>
    <trip id="t_29" depart="580.00" from="-23173789#17" to="-78828539#30" type="t__truck"/>
    <trip id="t_30" depart="600.00" from="902777249#1" to="213545296#0" type="t__truck"/>
    <trip id="t_31" depart="620.00" from="105232027#6" to="25583275#14" type="t__truck"/>
    <trip id="t_32" depart="640.00" from="476424898#1" to="400978917#9" type="t__truck"/>
    <trip id="t_33" depart="660.00" from="-288794737#6" to="-105159774#8" type="t__truck"/>
    <trip id="t_34" depart="680.00" from="-41691152#0" to="-400978917#1" type="t__truck"/>
    <trip id="t_35" depart="700.00" from="-25630218#9" to="89562658#16" type="t__truck"/>
    <trip id="t_36" depart="720.00" from="715093627#1" to="-41691163#10" type="t__truck"/>
    <trip id="t_37" depart="740.00" from="225682971#0" to="-78832776#0" type="t__truck"/>
    <trip id="t_38" depart="760.00" from="80444869#0" to="-89562703#26" type="t__truck"/>
    <trip id="t_39" depart="780.00" from="-376714133#0" to="-33189690#17" type="t__truck"/>
    <trip id="t_40" depart="800.00" from="105232030#17" to="-400978914#0" type="t__truck"/>
    <trip id="t_41" depart="820.00" from="106545970#4" to="78828551#1" type="t__truck"/>
    <trip id="t_42" depart="840.00" from="-78828549#2" to="-288794788#1" type="t__truck"/>
    <trip id="t_43" depart="860.00" from="904673614#7" to="105159772#13" type="t__truck"/>
    <trip id="t_44" depart="880.00" from="-106546013#4" to="-105168446#4" type="t__truck"/>
    <trip id="t_45" depart="900.00" from="-106550090#15" to="1428541327" type="t__truck"/>
    <trip id="t_46" depart="920.00" from="400978929#13" to="-893735984" type="t__truck"/>
    <trip id="t_47" depart="940.00" from="-105232030#6" to="-78828539#5" type="t__truck"/>
    <trip id="t_48" depart="960.00" from="904673614#5" to="105168427#28" type="t__truck"/>
    <trip id="t_49" depart="980.00" from="89562703#2" to="645739342#1" type="t__truck"/>
    <trip id="t_50" depart="1000.00" from="-105159764#4" to="288794737#2" type="t__truck"/>
    <trip id="t_51" depart="1020.00" from="25561499#23" to="105232027#14" type="t__truck"/>
    <trip id="t_52" depart="1040.00" from="-376714133#4" to="213545296#10" type="t__truck"/>
    <trip id="t_53" depart="1060.00" from="-106550090#18" to="-89562658#5" type="t__truck"/>
    <trip id="t_54" depart="1080.00" from="-89562661#16" to="89562661#6" type="t__truck"/>
    <trip id="t_55" depart="1100.00" from="715093627#0" to="-400978914#1" type="t__truck"/>
    <trip id="t_56" depart="1120.00" from="-931822795#0" to="-25561514#0" type="t__truck"/>
    <trip id="t_57" depart="1140.00" from="80444862" to="725476479#1" type="t__truck"/>
    <trip id="t_58" depart="1160.00" from="-400978940#0" to="213545293.71" type="t__truck"/>
    <trip id="t_59" depart="1180.00" from="106550090#18" to="-23173789#14" type="t__truck"/>
    <trip id="t_60" depart="1200.00" from="33189690#21" to="105232027#5" type="t__truck"/>
    <trip id="t_61" depart="1220.00" from="400978914#2" to="105168427#9" type="t__truck"/>
    <trip id="t_62" depart="1240.00" from="-100834037#1" to="-44014594#0" type="t__truck"/>
    <trip id="t_63" depart="1260.00" from="-105159771#23" to="88141693#3" type="t__truck"/>
    <trip id="t_64" depart="1280.00" from="745826132#0" to="476424891#4" type="t__truck"/>
    <trip id="t_65" depart="1300.00" from="-41691147#10" to="-105232030#17" type="t__truck"/>
    <trip id="t_66" depart="1320.00" from="725476480#1" to="89562658#8" type="t__truck"/>
    <trip id="t_67" depart="1340.00" from="-106545970#8" to="100834037#3" type="t__truck"/>
    <trip id="t_68" depart="1360.00" from="-105232045#0" to="376714133#0" type="t__truck"/>
    <trip id="t_69" depart="1380.00" from="33189770" to="-1416317674" type="t__truck"/>
    <trip id="t_70" depart="1400.00" from="-89562703#24" to="105232030#9" type="t__truck"/>
    <trip id="t_71" depart="1420.00" from="-376714133#1" to="745826132#0" type="t__truck"/>
    <trip id="t_72" depart="1440.00" from="-88141673#0" to="-25676052#0" type="t__truck"/>
    <trip id="t_73" depart="1460.00" from="105168401#7" to="288974406#2" type="t__truck"/>
    <trip id="t_74" depart="1480.00" from="-25630213#9" to="-41691155#6" type="t__truck"/>
    <trip id="t_75" depart="1500.00" from="904673614#3" to="23173787" type="t__truck"/>
    <trip id="t_76" depart="1520.00" from="-89562654#4" to="105159774#7" type="t__truck"/>
    <trip id="t_77" depart="1540.00" from="-106550096" to="-288974406#0" type="t__truck"/>
    <trip id="t_78" depart="1560.00" from="-476424891#7" to="106550077" type="t__truck"/>
    <trip id="t_79" depart="1580.00" from="-288839028#0" to="-288839028#1" type="t__truck"/>
    <trip id="t_80" depart="1600.00" from="-105232045#6" to="173522653#0" type="t__truck"/>
    <trip id="t_81" depart="1620.00" from="-288794737#6" to="78832776#1" type="t__truck"/>
    <trip id="t_82" depart="1640.00" from="49850018#2" to="-105232046" type="t__truck"/>
    <trip id="t_83" depart="1660.00" from="-288974406#6" to="25561499#16" type="t__truck"/>
    <trip id="t_84" depart="1680.00" from="-25630529#13" to="-1428609378#4" type="t__truck"/>
    <trip id="t_85" depart="1700.00" from="88213892" to="106545970#8" type="t__truck"/>
    <trip id="t_86" depart="1720.00" from="-89562703#2" to="400978929#13" type="t__truck"/>
    <trip id="t_87" depart="1740.00" from="40989963#1" to="-25630213#1" type="t__truck"/>
    <trip id="t_88" depart="1760.00" from="-106546050" to="-89562658#16" type="t__truck"/>
    <trip id="t_89" depart="1780.00" from="-88141673#2" to="-899914841#0" type="t__truck"/>
    <trip id="t_90" depart="1800.00" from="288794737#3" to="25561499#26" type="t__truck"/>
    <trip id="t_91" depart="1820.00" from="899914841#3" to="-106550073" type="t__truck"/>
    <trip id="t_92" depart="1840.00" from="-78828551#4" to="-494611378" type="t__truck"/>
    <trip id="t_93" depart="1860.00" from="559446505#1" to="-33189690#3" type="t__truck"/>
    <trip id="t_94" depart="1880.00" from="-25583275#10" to="-89562689#2" type="t__truck"/>
    <trip id="t_95" depart="1900.00" from="-878571563" to="-400978927#1" type="t__truck"/>
    <trip id="t_96" depart="1920.00" from="-289548195" to="88141679#0" type="t__truck"/>
    <trip id="t_97" depart="1940.00" from="-89562658#10" to="705955085#0" type="t__truck"/>
    <trip id="t_98" depart="1960.00" from="105168446#4" to="-105232027#14" type="t__truck"/>
    <trip id="t_99" depart="1980.00" from="931822795#1" to="476424898#2" type="t__truck"/>
    <trip id="t_100" depart="2000.00" from="89562703#10" to="88141687#3" type="t__truck"/>
    <trip id="t_101" depart="2020.00" from="476424899#8" to="-25561499#12" type="t__truck"/>
    <trip id="t_102" depart="2040.00" from="-899914841#10" to="-283440274" type="t__truck"/>
    <trip id="t_103" depart="2060.00" from="-78828551#1" to="-105232030#20" type="t__truck"/>
    <trip id="t_104" depart="2080.00" from="-78828534#11" to="902777247#2" type="t__truck"/>
    <trip id="t_105" depart="2100.00" from="-376714133#1" to="400978929#1" type="t__truck"/>
    <trip id="t_106" depart="2120.00" from="-89562661#19" to="-89562653" type="t__truck"/>
    <trip id="t_107" depart="2140.00" from="89562661#8" to="904673614#4" type="t__truck"/>
    <trip id="t_108" depart="2160.00" from="105232027#4" to="288780409#1" type="t__truck"/>
    <trip id="t_109" depart="2180.00" from="-213545296#9" to="-41691147#10" type="t__truck"/>
    <trip id="t_110" depart="2200.00" from="89562703#10" to="106546023" type="t__truck"/>
    <trip id="t_111" depart="2220.00" from="105168427#17" to="33189593#1" type="t__truck"/>
    <trip id="t_112" depart="2240.00" from="-105232030#12" to="106546081#0" type="t__truck"/>
    <trip id="t_113" depart="2260.00" from="100834037#1" to="49850018#2" type="t__truck"/>
    <trip id="t_114" depart="2280.00" from="-225682975#1" to="89562689#0" type="t__truck"/>
    <trip id="t_115" depart="2300.00" from="-106545960#6" to="-25583275#21" type="t__truck"/>
    <trip id="t_116" depart="2320.00" from="106546024#0" to="25561499#30" type="t__truck"/>
    <trip id="t_117" depart="2340.00" from="-288839029" to="-128252747#3" type="t__truck"/>
    <trip id="t_118" depart="2360.00" from="78828539#19" to="-33189690#17" type="t__truck"/>
    <trip id="t_119" depart="2380.00" from="106546023" to="1416317269#3" type="t__truck"/>
    <trip id="t_120" depart="2400.00" from="-878249329#2" to="106546070" type="t__truck"/>
    <trip id="t_121" depart="2420.00" from="105159771#24" to="89562654#2" type="t__truck"/>
    <trip id="t_122" depart="2440.00" from="-25630216#0" to="283440274" type="t__truck"/>
    <trip id="t_123" depart="2460.00" from="-288974418" to="-78832776#0" type="t__truck"/>
    <trip id="t_124" depart="2480.00" from="23627726#1" to="-41691147#7" type="t__truck"/>
    <trip id="t_125" depart="2500.00" from="-41691152#10" to="33189690#17" type="t__truck"/>
    <trip id="t_126" depart="2520.00" from="-105232048" to="-89562703#24" type="t__truck"/>
    <trip id="t_127" depart="2540.00" from="904673614#9" to="904673614#6" type="t__truck"/>
    <trip id="t_128" depart="2560.00" from="-106545952#0" to="-26921982#2" type="t__truck"/>
    <trip id="t_129" depart="2580.00" from="-376714133#1" to="89562653" type="t__truck"/>
    <trip id="t_130" depart="2600.00" from="745826132#6" to="78828534#7" type="t__truck"/>
    <trip id="t_131" depart="2620.00" from="-711802514#10" to="-23173860#2" type="t__truck"/>
    <trip id="t_132" depart="2640.00" from="41691163#9" to="25630218#2" type="t__truck"/>
    <trip id="t_133" depart="2660.00" from="106550090#3" to="902777248#1" type="t__truck"/>
    <trip id="t_134" depart="2680.00" from="213545298#1" to="-105159760#6" type="t__truck"/>
    <trip id="t_135" depart="2700.00" from="41691152#1" to="-41691147#4" type="t__truck"/>
    <trip id="t_136" depart="2720.00" from="23173789#17" to="89562656#1" type="t__truck"/>
    <trip id="t_137" depart="2740.00" from="-1416317269#4" to="-106620701#0" type="t__truck"/>
    <trip id="t_138" depart="2760.00" from="-106550086" to="105232041#1" type="t__truck"/>
    <trip id="t_139" depart="2780.00" from="-400978913#4" to="106550095#5" type="t__truck"/>
    <trip id="t_140" depart="2800.00" from="25630529#19" to="-25630529#10" type="t__truck"/>
    <trip id="t_141" depart="2820.00" from="1416317677" to="-400978914#11" type="t__truck"/>
    <trip id="t_142" depart="2840.00" from="-902777247#4" to="78832776#1" type="t__truck"/>
    <trip id="t_143" depart="2860.00" from="476424899#0" to="-106546024#1" type="t__truck"/>
    <trip id="t_144" depart="2880.00" from="-88141673#2" to="-400978924#2" type="t__truck"/>
    <trip id="t_145" depart="2900.00" from="-105159760#1" to="400978914#6" type="t__truck"/>
    <trip id="t_146" depart="2920.00" from="1428609378#2" to="-400978913#4" type="t__truck"/>
    <trip id="t_147" depart="2940.00" from="288974411" to="105232040#0" type="t__truck"/>
    <trip id="t_148" depart="2960.00" from="-88141683" to="-105159761#2" type="t__truck"/>
    <trip id="t_149" depart="2980.00" from="-106545959#3" to="78828539#16" type="t__truck"/>
    <trip id="t_150" depart="3000.00" from="78828551#0" to="105232030#23" type="t__truck"/>
    <trip id="t_151" depart="3020.00" from="419958545#0" to="106546047" type="t__truck"/>
    <trip id="t_152" depart="3040.00" from="-213545289#1" to="-1416317269#6" type="t__truck"/>
    <trip id="t_153" depart="3060.00" from="-41691147#11" to="78828551#3" type="t__truck"/>
    <trip id="t_154" depart="3080.00" from="400978936#1" to="645739342#1" type="t__truck"/>
    <trip id="t_155" depart="3100.00" from="78828544#1" to="-25630529#25" type="t__truck"/>
    <trip id="t_156" depart="3120.00" from="-288974460#3" to="-106550090#14" type="t__truck"/>
    <trip id="t_157" depart="3140.00" from="400978914#8" to="78828539#2" type="t__truck"/>
    <trip id="t_158" depart="3160.00" from="-78828552#3" to="1416317269#6" type="t__truck"/>
    <trip id="t_159" depart="3180.00" from="-213545296#9" to="88213886#0" type="t__truck"/>
    <trip id="t_160" depart="3200.00" from="560408571#0" to="89562703#4" type="t__truck"/>
    <trip id="t_161" depart="3220.00" from="41691147#18" to="78828539#11" type="t__truck"/>
    <trip id="t_162" depart="3240.00" from="-105159772#16" to="288974454#2" type="t__truck"/>
    <trip id="t_163" depart="3260.00" from="-41691163#5" to="88213888" type="t__truck"/>
    <trip id="t_164" depart="3280.00" from="40989449#1" to="710509165" type="t__truck"/>
    <trip id="t_165" depart="3300.00" from="41691147#18" to="-400978914#8" type="t__truck"/>
    <trip id="t_166" depart="3320.00" from="400978923#2" to="-106550090#3" type="t__truck"/>
    <trip id="t_167" depart="3340.00" from="711802514#11" to="560408571#1" type="t__truck"/>
    <trip id="t_168" depart="3360.00" from="-26921982#2" to="41691155#6" type="t__truck"/>
    <trip id="t_169" depart="3380.00" from="-89562674" to="-41691152#10" type="t__truck"/>
    <trip id="t_170" depart="3400.00" from="400978930" to="-288974406#6" type="t__truck"/>
    <trip id="t_171" depart="3420.00" from="-105159772#13" to="-25630214" type="t__truck"/>
    <trip id="t_172" depart="3440.00" from="-41691163#19" to="710509165" type="t__truck"/>
    <trip id="t_173" depart="3460.00" from="89562697#0" to="-400978927#4" type="t__truck"/>
    <trip id="t_174" depart="3480.00" from="191555413#1" to="-80444869#1" type="t__truck"/>
    <trip id="t_175" depart="3500.00" from="89562711#0" to="105232027#12" type="t__truck"/>
    <trip id="t_176" depart="3520.00" from="89562654#2" to="-106620701#0" type="t__truck"/>
    <trip id="t_177" depart="3540.00" from="89562703#16" to="-25561514#0" type="t__truck"/>
    <trip id="t_178" depart="3560.00" from="89562685" to="-400978914#4" type="t__truck"/>
    <trip id="t_179" depart="3580.00" from="-106550090#10" to="-89562658#5" type="t__truck"/>
    <trip id="t_180" depart="3600.00" from="288794737#2" to="-41691157#3" type="t__truck"/>
    <trip id="t_181" depart="3620.00" from="106550090#11" to="105159772#19" type="t__truck"/>
    <trip id="t_182" depart="3640.00" from="-78828539#14" to="106546019#0" type="t__truck"/>
    <trip id="t_183" depart="3660.00" from="-33189690#13" to="25630529#2" type="t__truck"/>
    <trip id="t_184" depart="3680.00" from="-100834037#3" to="88141687#1" type="t__truck"/>
    <trip id="t_185" depart="3700.00" from="105168401#6" to="288780411#2" type="t__truck"/>
    <trip id="t_186" depart="3720.00" from="288974415" to="25561499#20" type="t__truck"/>
    <trip id="t_187" depart="3740.00" from="-645739342#0" to="-105232045#6" type="t__truck"/>
    <trip id="t_188" depart="3760.00" from="23173789#3" to="-476424898#3" type="t__truck"/>
    <trip id="t_189" depart="3780.00" from="-41691149#4" to="494611386#1" type="t__truck"/>
    <trip id="t_190" depart="3800.00" from="25630529#23" to="-41691149#0" type="t__truck"/>
    <trip id="t_191" depart="3820.00" from="-41691147#17" to="-878249329#6" type="t__truck"/>
    <trip id="t_192" depart="3840.00" from="-78828551#4" to="-40989963#1" type="t__truck"/>
    <trip id="t_193" depart="3860.00" from="-113339441#1" to="-88213892" type="t__truck"/>
    <trip id="t_194" depart="3880.00" from="89562655#0" to="25561499#4" type="t__truck"/>
    <trip id="t_195" depart="3900.00" from="78828549#2" to="128252748#1" type="t__truck"/>
    <trip id="t_196" depart="3920.00" from="-40989449#1" to="105232030#4" type="t__truck"/>
    <trip id="t_197" depart="3940.00" from="-100834037#0" to="-400978937#4" type="t__truck"/>
    <trip id="t_198" depart="3960.00" from="-88141691#0" to="106546024#1" type="t__truck"/>
    <trip id="t_199" depart="3980.00" from="213545300" to="-89562705#2" type="t__truck"/>
    <trip id="t_200" depart="4000.00" from="-89562658#0" to="-283440274" type="t__truck"/>
    <trip id="t_201" depart="4020.00" from="-89562703#20" to="78828552#13" type="t__truck"/>
    <trip id="t_202" depart="4040.00" from="400978936#1" to="-25561499#21" type="t__truck"/>
    <trip id="t_203" depart="4060.00" from="-106545970#6" to="105159774#2" type="t__truck"/>
    <trip id="t_204" depart="4080.00" from="1416317676#0" to="-476424899#9" type="t__truck"/>
    <trip id="t_205" depart="4100.00" from="41691152#12" to="33189690#14" type="t__truck"/>
    <trip id="t_206" depart="4120.00" from="23627726#3" to="-288974406#0" type="t__truck"/>
    <trip id="t_207" depart="4140.00" from="-25630213#3" to="-105159772#16" type="t__truck"/>
    <trip id="t_208" depart="4160.00" from="-288974456#2" to="-904673614#0" type="t__truck"/>
    <trip id="t_209" depart="4180.00" from="476424900#0" to="-106545959#2" type="t__truck"/>
    <trip id="t_210" depart="4200.00" from="-80733949#1" to="1456785327" type="t__truck"/>
    <trip id="t_211" depart="4220.00" from="-25583275#21" to="25630215#3" type="t__truck"/>
    <trip id="t_212" depart="4240.00" from="-904673614#13" to="-33189690#10" type="t__truck"/>
    <trip id="t_213" depart="4260.00" from="225682971#1" to="-105159760#14" type="t__truck"/>
    <trip id="t_214" depart="4280.00" from="288974456#2" to="400978914#2" type="t__truck"/>
    <trip id="t_215" depart="4300.00" from="-106550085" to="-89562655#0" type="t__truck"/>
    <trip id="t_216" depart="4320.00" from="-25561499#15" to="89562675#0" type="t__truck"/>
    <trip id="t_217" depart="4340.00" from="105159771#11" to="-105232027#14" type="t__truck"/>
    <trip id="t_218" depart="4360.00" from="-288974460#2" to="494611386#2" type="t__truck"/>
    <trip id="t_219" depart="4380.00" from="-89562661#4" to="41691147#10" type="t__truck"/>
    <trip id="t_220" depart="4400.00" from="23173860#1" to="902777248#2" type="t__truck"/>
    <trip id="t_221" depart="4420.00" from="106546024#1" to="89562661#14" type="t__truck"/>
    <trip id="t_222" depart="4440.00" from="78828539#21" to="113339441#0" type="t__truck"/>
    <trip id="t_223" depart="4460.00" from="25630529#23" to="105159771#23" type="t__truck"/>
    <trip id="t_224" depart="4480.00" from="41691163#23" to="105232030#29" type="t__truck"/>
    <trip id="t_225" depart="4500.00" from="78828539#5" to="288974460#1" type="t__truck"/>
    <trip id="t_226" depart="4520.00" from="-89562703#23" to="-376718512#2" type="t__truck"/>
    <trip id="t_227" depart="4540.00" from="-288974458#0" to="213545289#2" type="t__truck"/>
    <trip id="t_228" depart="4560.00" from="33189770" to="105168401#6" type="t__truck"/>
    <trip id="t_229" depart="4580.00" from="128252750#0" to="-400978922#3" type="t__truck"/>
    <trip id="t_230" depart="4600.00" from="-106545960#10" to="-400978937#2" type="t__truck"/>
    <trip id="t_231" depart="4620.00" from="-400978913#2" to="-41691163#25" type="t__truck"/>
    <trip id="t_232" depart="4640.00" from="105168427#10" to="-213545294" type="t__truck"/>
    <trip id="t_233" depart="4660.00" from="-288839028#10" to="25630213#9" type="t__truck"/>
    <trip id="t_234" depart="4680.00" from="25630215#3" to="-105232033#2" type="t__truck"/>
    <trip id="t_235" depart="4700.00" from="-78832776#0" to="105232030#12" type="t__truck"/>
    <trip id="t_236" depart="4720.00" from="-876526142#1" to="-25630529#18" type="t__truck"/>
    <trip id="t_237" depart="4740.00" from="-878249329#4" to="78832776#0" type="t__truck"/>
    <trip id="t_238" depart="4760.00" from="106545970#2" to="25630215#1" type="t__truck"/>
    <trip id="t_239" depart="4780.00" from="49840960#1" to="376718512#4" type="t__truck"/>
    <trip id="t_240" depart="4800.00" from="-78828534#2" to="-105159760#14" type="t__truck"/>
    <trip id="t_241" depart="4820.00" from="-494611386#0" to="33189690#2" type="t__truck"/>
    <trip id="t_242" depart="4840.00" from="494611384" to="89562661#4" type="t__truck"/>
    <trip id="t_243" depart="4860.00" from="-878249329#2" to="31696647" type="t__truck"/>
    <trip id="t_244" depart="4880.00" from="105168427#28" to="106550095#0" type="t__truck"/>
    <trip id="t_245" depart="4900.00" from="-25630529#7" to="-288794788#1" type="t__truck"/>
    <trip id="t_246" depart="4920.00" from="-893735984" to="-105159774#2" type="t__truck"/>
    <trip id="t_247" depart="4940.00" from="-476424891#0" to="25561499#9" type="t__truck"/>
    <trip id="t_248" depart="4960.00" from="-78828552#14" to="-25541837#0" type="t__truck"/>
    <trip id="t_249" depart="4980.00" from="-89562694" to="-1416317269#6" type="t__truck"/>
    <trip id="t_250" depart="5000.00" from="113339441#1" to="-105159772#5" type="t__truck"/>
    <trip id="t_251" depart="5020.00" from="-78828539#6" to="106545960#5" type="t__truck"/>
    <trip id="t_252" depart="5040.00" from="-105159772#5" to="213545296#3" type="t__truck"/>
    <trip id="t_253" depart="5060.00" from="-1416317269#8" to="-89562703#4" type="t__truck"/>
    <trip id="t_254" depart="5080.00" from="-105232027#11" to="-78828539#28" type="t__truck"/>
    <trip id="t_255" depart="5100.00" from="-25630529#0" to="-476424891#7" type="t__truck"/>
    <trip id="t_256" depart="5120.00" from="33189690#19" to="-78828539#28" type="t__truck"/>
    <trip id="t_257" depart="5140.00" from="288974457#1" to="476424891#4" type="t__truck"/>
    <trip id="t_258" depart="5160.00" from="-33189593#0" to="-106545970#5" type="t__truck"/>
    <trip id="t_259" depart="5180.00" from="-105159771#23" to="105232027#5" type="t__truck"/>
    <trip id="t_260" depart="5200.00" from="960080894" to="-560408569#1" type="t__truck"/>
    <trip id="t_261" depart="5220.00" from="213545296#3" to="400978924#3" type="t__truck"/>
    <trip id="t_262" depart="5240.00" from="213545296#6" to="33189690#21" type="t__truck"/>
    <trip id="t_263" depart="5260.00" from="89562658#5" to="-25630216#3" type="t__truck"/>
    <trip id="t_264" depart="5280.00" from="-105159771#4" to="-23173789#13" type="t__truck"/>
    <trip id="t_265" depart="5300.00" from="-113339437#1" to="25561499#18" type="t__truck"/>
    <trip id="t_266" depart="5320.00" from="105232030#28" to="-288794737#4" type="t__truck"/>
    <trip id="t_267" depart="5340.00" from="25583275#6" to="400978913#2" type="t__truck"/>
    <trip id="t_268" depart="5360.00" from="-23173860#3" to="106550096" type="t__truck"/>
    <trip id="t_269" depart="5380.00" from="288974454#6" to="-106620686#0" type="t__truck"/>
    <trip id="t_270" depart="5400.00" from="41691152#2" to="89562694" type="t__truck"/>
    <trip id="t_271" depart="5420.00" from="-106550090#0" to="-105159772#3" type="t__truck"/>
    <trip id="t_272" depart="5440.00" from="-41691149#1" to="25561499#4" type="t__truck"/>
    <trip id="t_273" depart="5460.00" from="89562661#9" to="-80051929" type="t__truck"/>
    <trip id="t_274" depart="5480.00" from="25630529#12" to="-106545960#2" type="t__truck"/>
    <trip id="t_275" depart="5500.00" from="25561514#2" to="1428541327" type="t__truck"/>
    <trip id="t_276" depart="5520.00" from="-106550073" to="400978914#9" type="t__truck"/>
    <trip id="t_277" depart="5540.00" from="476424900#1" to="106550090#3" type="t__truck"/>
    <trip id="t_278" depart="5560.00" from="-106550096" to="899914841#4" type="t__truck"/>
    <trip id="t_279" depart="5580.00" from="400978917#4" to="-559446505#0" type="t__truck"/>
    <trip id="t_280" depart="5600.00" from="-88141687#1" to="-78828534#8" type="t__truck"/>
    <trip id="t_281" depart="5620.00" from="105159760#10" to="-494758078" type="t__truck"/>
    <trip id="t_282" depart="5640.00" from="476424900#0" to="41691163#2" type="t__truck"/>
    <trip id="t_283" depart="5660.00" from="-106550083" to="89562689#0" type="t__truck"/>
    <trip id="t_284" depart="5680.00" from="1428541327" to="419958546#1" type="t__truck"/>
    <trip id="t_285" depart="5700.00" from="25630216#1" to="-89562658#9" type="t__truck"/>
    <trip id="t_286" depart="5720.00" from="288839028#5" to="89562697#0" type="t__truck"/>
    <trip id="t_287" depart="5740.00" from="-376718512#8" to="41691149#7" type="t__truck"/>
    <trip id="t_288" depart="5760.00" from="105168401#5" to="-931822795#0" type="t__truck"/>
    <trip id="t_289" depart="5780.00" from="-893379337#1" to="288974406#4" type="t__truck"/>
    <trip id="t_290" depart="5800.00" from="-376718512#1" to="49850017#8" type="t__truck"/>
    <trip id="t_291" depart="5820.00" from="41691163#23" to="-106545982#5" type="t__truck"/>
    <trip id="t_292" depart="5840.00" from="78828534#0" to="-33189690#10" type="t__truck"/>
    <trip id="t_293" depart="5860.00" from="-89562689#3" to="106620701#3" type="t__truck"/>
    <trip id="t_294" depart="5880.00" from="-78828534#11" to="-105159774#1" type="t__truck"/>
    <trip id="t_295" depart="5900.00" from="476424900#2" to="-25583275#11" type="t__truck"/>
    <trip id="t_296" depart="5920.00" from="-25630529#1" to="40989954#0" type="t__truck"/>
    <trip id="t_297" depart="5940.00" from="-476424898#2" to="78828539#0" type="t__truck"/>
    <trip id="t_298" depart="5960.00" from="25630213#1" to="-400978924#1" type="t__truck"/>
    <trip id="t_299" depart="5980.00" from="-105159761#3" to="89562661#1" type="t__truck"/>
</routes>
