<?xml version="1.0" encoding="UTF-8"?>

<!-- generated on 2026-01-26 23:01:47.249601 by Eclipse SUMO randomTrips.py v1_25_0+0000-ac6c5a6752d
<configuration>
    <net-file value="osm.net.xml"/>
    <output-trip-file value="trips/truckRush.trips.xml"/>
    <prefix value="t_"/>
    <trip-attributes value="guiShape='truck'"/>
    <vehicle-class value="truck"/>
    <end value="6000.0"/>
    <period value="10.0"/>
</configuration>
-->

<routes xmlns:xsi="http://www.w3.org/2001/XMLSchema-instance" xsi:noNamespaceSchemaLocation="http://sumo.dlr.de/xsd/routes_file.xsd">
    <vType id="t__truck" vClass="truck" guiShape='truck'/>
    <trip id="t_0" depart="0.00" from="173522653#0" to="-105159772#14" type="t__truck"/>
    <trip id="t_1" depart="10.00" from="-400978922#3" to="-288974420#0" type="t__truck"/>
    <trip id="t_2" depart="20.00" from="288974454#0" to="25583275#22" type="t__truck"/>
    <trip id="t_3" depart="30.00" from="78828539#8" to="-106545970#6" type="t__truck"/>
    <trip id="t_4" depart="40.00" from="-88141673#2" to="-105159774#0" type="t__truck"/>
    <trip id="t_5" depart="50.00" from="-288794737#1" to="105159771#16" type="t__truck"/>
    <trip id="t_6" depart="60.00" from="-105159772#17" to="-25630529#17" type="t__truck"/>
    <trip id="t_7" depart="70.00" from="23173789#1" to="105232027#7" type="t__truck"/>
    <trip id="t_8" depart="80.00" from="-288794737#6" to="106546033" type="t__truck"/>
    <trip id="t_9" depart="90.00" from="41691152#12" to="-105159760#17" type="t__truck"/>
    <trip id="t_10" depart="100.00" from="41691149#4" to="25630529#18" type="t__truck"/>
    <trip id="t_11" depart="110.00" from="-476424899#9" to="-25541837#0" type="t__truck"/>
    <trip id="t_12" depart="120.00" from="89562672#0" to="-49850017#0" type="t__truck"/>
    <trip id="t_13" depart="130.00" from="-106545982#2" to="-106546024#0" type="t__truck"/>
    <trip id="t_14" depart="140.00" from="494611386#1" to="106550090#15" type="t__truck"/>
    <trip id="t_15" depart="150.00" from="41691152#0" to="288974454#9" type="t__truck"/>
    <trip id="t_16" depart="160.00" from="105159774#0" to="89562703#30" type="t__truck"/>
    <trip id="t_17" depart="170.00" from="-78828534#7" to="105232030#27" type="t__truck"/>
    <trip id="t_18" depart="180.00" from="44014594#1" to="106620701#2" type="t__truck"/>
    <trip id="t_19" depart="190.00" from="705955085#3" to="106545970#7" type="t__truck"/>
    <trip id="t_20" depart="200.00" from="25630216#8" to="-105168427#6" type="t__truck"/>
    <trip id="t_21" depart="210.00" from="-288974406#1" to="-41691147#14" type="t__truck"/>
    <trip id="t_22" depart="220.00" from="-106545959#3" to="-33189690#12" type="t__truck"/>
    <trip id="t_23" depart="230.00" from="-106546024#4" to="-400978937#5" type="t__truck"/>
    <trip id="t_24" depart="240.00" from="1428541328" to="-78828534#4" type="t__truck"/>
    <trip id="t_25" depart="250.00" from="-725476480#0" to="-288794737#1" type="t__truck"/>
    <trip id="t_26" depart="260.00" from="-400978914#8" to="89562658#1" type="t__truck"/>
    <trip id="t_27" depart="270.00" from="23173787" to="106550090#7" type="t__truck"/>
    <trip id="t_28" depart="280.00" from="-25561499#28" to="288974454#8" type="t__truck"/>
    <trip id="t_29" depart="290.00" from="-25561499#12" to="-78828539#9" type="t__truck"/>
    <trip id="t_30" depart="300.00" from="902796264" to="23173789#12" type="t__truck"/>
    <trip id="t_31" depart="310.00" from="105168446#7" to="25630215#0" type="t__truck"/>
    <trip id="t_32" depart="320.00" from="476424900#1" to="400978929#6" type="t__truck"/>
    <trip id="t_33" depart="330.00" from="-288974406#3" to="-105159774#4" type="t__truck"/>
    <trip id="t_34" depart="340.00" from="-41691155#6" to="-400978926#0" type="t__truck"/>
    <trip id="t_35" depart="350.00" from="-25630529#3" to="89562658#23" type="t__truck"/>
    <trip id="t_36" depart="360.00" from="78828534#13" to="-419958542" type="t__truck"/>
    <trip id="t_37" depart="370.00" from="23173789#5" to="-80444868#1" type="t__truck"/>
    <trip id="t_38" depart="380.00" from="876288098#1" to="-89562703#26" type="t__truck"/>
    <trip id="t_39" depart="390.00" from="-400978914#12" to="-376714133#5" type="t__truck"/>
    <trip id="t_40" depart="400.00" from="105232027#4" to="-400978919#1" type="t__truck"/>
    <trip id="t_41" depart="410.00" from="106545960#10" to="78828552#2" type="t__truck"/>
    <trip id="t_42" depart="420.00" from="-78828551#4" to="-288974406#2" type="t__truck"/>
    <trip id="t_43" depart="430.00" from="904673614#8" to="105159771#5" type="t__truck"/>
    <trip id="t_44" depart="440.00" from="-106545970#9" to="-105168430#0" type="t__truck"/>
    <trip id="t_45" depart="450.00" from="-106550079#1" to="1456785327" type="t__truck"/>
    <trip id="t_46" depart="460.00" from="40989449#1" to="-89562654#1" type="t__truck"/>
    <trip id="t_47" depart="470.00" from="-105232030#23" to="-78828544#6" type="t__truck"/>
    <trip id="t_48" depart="480.00" from="904673614#5" to="105168427#17" type="t__truck"/>
    <trip id="t_49" depart="490.00" from="89562703#22" to="711802514#5" type="t__truck"/>
    <trip id="t_50" depart="500.00" from="-105159764#2" to="288974406#1" type="t__truck"/>
    <trip id="t_51" depart="510.00" from="25561514#2" to="105168446#1" type="t__truck"/>
    <trip id="t_52" depart="520.00" from="-400978914#8" to="23173789#14" type="t__truck"/>
    <trip id="t_53" depart="530.00" from="-106550084" to="-89562658#9" type="t__truck"/>
    <trip id="t_54" depart="540.00" from="-89562661#16" to="89562668" type="t__truck"/>
    <trip id="t_55" depart="550.00" from="78828534#11" to="-400978921" type="t__truck"/>
    <trip id="t_56" depart="560.00" from="-904673614#5" to="-25583275#3" type="t__truck"/>
    <trip id="t_57" depart="570.00" from="80444869#7" to="78828534#2" type="t__truck"/>
    <trip id="t_58" depart="580.00" from="-40989963#1" to="23173789#10" type="t__truck"/>
    <trip id="t_59" depart="590.00" from="106550068#0" to="-23627726#2" type="t__truck"/>
    <trip id="t_60" depart="600.00" from="376718512#8" to="105232027#0" type="t__truck"/>
    <trip id="t_61" depart="610.00" from="400978926#0" to="105168427#21" type="t__truck"/>
    <trip id="t_62" depart="620.00" from="-100834037#1" to="-476424898#6" type="t__truck"/>
    <trip id="t_63" depart="630.00" from="-105159771#20" to="893735984" type="t__truck"/>
    <trip id="t_64" depart="640.00" from="78828534#5" to="476424899#10" type="t__truck"/>
    <trip id="t_65" depart="650.00" from="-41691149#8" to="-105232030#0" type="t__truck"/>
    <trip id="t_66" depart="660.00" from="78828534#3" to="89562661#12" type="t__truck"/>
    <trip id="t_67" depart="670.00" from="-106545970#0" to="100834037#0" type="t__truck"/>
    <trip id="t_68" depart="680.00" from="-105232039" to="400978914#9" type="t__truck"/>
    <trip id="t_69" depart="690.00" from="400978914#10" to="-1428527847" type="t__truck"/>
    <trip id="t_70" depart="700.00" from="-89562703#22" to="105232030#2" type="t__truck"/>
    <trip id="t_71" depart="710.00" from="-400978914#2" to="78828534#5" type="t__truck"/>
    <trip id="t_72" depart="720.00" from="-88141674#1" to="-288794737#6" type="t__truck"/>
    <trip id="t_73" depart="730.00" from="105159774#6" to="288974457#0" type="t__truck"/>
    <trip id="t_74" depart="740.00" from="-25630218#0" to="-41691163#24" type="t__truck"/>
    <trip id="t_75" depart="750.00" from="904673614#3" to="23173860#8" type="t__truck"/>
    <trip id="t_76" depart="760.00" from="-89562655#0" to="105159774#0" type="t__truck"/>
    <trip id="t_77" depart="770.00" from="-106550090#6" to="-288974454#2" type="t__truck"/>
    <trip id="t_78" depart="780.00" from="-476424899#10" to="106546024#4" type="t__truck"/>
    <trip id="t_79" depart="790.00" from="-288974406#5" to="-288974406#3" type="t__truck"/>
    <trip id="t_80" depart="800.00" from="-105232041#0" to="191555412#1" type="t__truck"/>
    <trip id="t_81" depart="810.00" from="-288974406#3" to="80444869#7" type="t__truck"/>
    <trip id="t_82" depart="820.00" from="701022113" to="-105232041#2" type="t__truck"/>
    <trip id="t_83" depart="830.00" from="-288974458#0" to="25561514#1" type="t__truck"/>
    <trip id="t_84" depart="840.00" from="-283440274" to="-191555413#0" type="t__truck"/>
    <trip id="t_85" depart="850.00" from="89562654#1" to="106545960#6" type="t__truck"/>
    <trip id="t_86" depart="860.00" from="-89562703#16" to="40989449#1" type="t__truck"/>
    <trip id="t_87" depart="870.00" from="41691152#0" to="-25630216#13" type="t__truck"/>
    <trip id="t_88" depart="880.00" from="-106546019#1" to="-89562658#19" type="t__truck"/>
    <trip id="t_89" depart="890.00" from="-88141674#2" to="-89562711#1" type="t__truck"/>
    <trip id="t_90" depart="900.00" from="288839028#9" to="25583275#13" type="t__truck"/>
    <trip id="t_91" depart="910.00" from="899914841#7" to="-106546024#4" type="t__truck"/>
    <trip id="t_92" depart="920.00" from="-78828552#17" to="-49850018#2" type="t__truck"/>
    <trip id="t_93" depart="930.00" from="705955085#3" to="-376718512#2" type="t__truck"/>
    <trip id="t_94" depart="940.00" from="-25630213#4" to="-89562689#3" type="t__truck"/>
    <trip id="t_95" depart="950.00" from="-88141673#2" to="-400978939" type="t__truck"/>
    <trip id="t_96" depart="960.00" from="-33189690#7" to="88141691#0" type="t__truck"/>
    <trip id="t_97" depart="970.00" from="-89562658#11" to="711802514#7" type="t__truck"/>
    <trip id="t_98" depart="980.00" from="105168427#26" to="-105168446#7" type="t__truck"/>
    <trip id="t_99" depart="990.00" from="931822795#1" to="476424900#2" type="t__truck"/>
    <trip id="t_100" depart="1000.00" from="89562703#17" to="88213886#0" type="t__truck"/>
    <trip id="t_101" depart="1010.00" from="494758078" to="-25561499#33" type="t__truck"/>
    <trip id="t_102" depart="1020.00" from="-89562711#2" to="-288839028#1" type="t__truck"/>
    <trip id="t_103" depart="1030.00" from="-78828552#13" to="-105232030#10" type="t__truck"/>
    <trip id="t_104" depart="1040.00" from="-78828534#8" to="902777247#4" type="t__truck"/>
    <trip id="t_105" depart="1050.00" from="-400978914#2" to="40989449#0" type="t__truck"/>
    <trip id="t_106" depart="1060.00" from="-89562661#19" to="-89562654#2" type="t__truck"/>
    <trip id="t_107" depart="1070.00" from="89562672#0" to="904673614#5" type="t__truck"/>
    <trip id="t_108" depart="1080.00" from="105168446#4" to="288839028#6" type="t__truck"/>
    <trip id="t_109" depart="1090.00" from="-23173860#0" to="-41691152#1" type="t__truck"/>
    <trip id="t_110" depart="1100.00" from="89562703#16" to="106545982#1" type="t__truck"/>
    <trip id="t_111" depart="1110.00" from="105168401#4" to="376714132" type="t__truck"/>
    <trip id="t_112" depart="1120.00" from="-105232027#6" to="106546019#1" type="t__truck"/>
    <trip id="t_113" depart="1130.00" from="-904673614#9" to="645739342#0" type="t__truck"/>
    <trip id="t_114" depart="1140.00" from="-23173860#5" to="89562689#4" type="t__truck"/>
    <trip id="t_115" depart="1150.00" from="-106545959#4" to="-25630215#0" type="t__truck"/>
    <trip id="t_116" depart="1160.00" from="106545982#0" to="25583275#18" type="t__truck"/>
    <trip id="t_117" depart="1170.00" from="-288974454#7" to="-106550095#8" type="t__truck"/>
    <trip id="t_118" depart="1180.00" from="78828539#35" to="-376714133#4" type="t__truck"/>
    <trip id="t_119" depart="1190.00" from="106545970#9" to="106620701#3" type="t__truck"/>
    <trip id="t_120" depart="1200.00" from="-878249329#7" to="106546019#0" type="t__truck"/>
    <trip id="t_121" depart="1210.00" from="105159771#13" to="89562656#0" type="t__truck"/>
    <trip id="t_122" depart="1220.00" from="-25630529#11" to="288839028#11" type="t__truck"/>
    <trip id="t_123" depart="1230.00" from="-289548195" to="-80444868#1" type="t__truck"/>
    <trip id="t_124" depart="1240.00" from="25561499#22" to="-41691152#3" type="t__truck"/>
    <trip id="t_125" depart="1250.00" from="-41691155#8" to="376718512#1" type="t__truck"/>
    <trip id="t_126" depart="1260.00" from="-105232041#3" to="-89562703#24" type="t__truck"/>
    <trip id="t_127" depart="1270.00" from="931822795#0" to="904673614#6" type="t__truck"/>
    <trip id="t_128" depart="1280.00" from="-105232045#1" to="-288839028#0" type="t__truck"/>
    <trip id="t_129" depart="1290.00" from="-400978914#2" to="89562655#2" type="t__truck"/>
    <trip id="t_130" depart="1300.00" from="78828539#1" to="78828539#22" type="t__truck"/>
    <trip id="t_131" depart="1310.00" from="-725476479#1" to="-25561499#15" type="t__truck"/>
    <trip id="t_132" depart="1320.00" from="476424892" to="25676052#0" type="t__truck"/>
    <trip id="t_133" depart="1330.00" from="106550078#2" to="902777248#2" type="t__truck"/>
    <trip id="t_134" depart="1340.00" from="23173789#19" to="-105159760#6" type="t__truck"/>
    <trip id="t_135" depart="1350.00" from="41691157#3" to="-41691152#2" type="t__truck"/>
    <trip id="t_136" depart="1360.00" from="23961341" to="89562658#15" type="t__truck"/>
    <trip id="t_137" depart="1370.00" from="-113339441#1" to="-106550091" type="t__truck"/>
    <trip id="t_138" depart="1380.00" from="-106550069" to="105232030#4" type="t__truck"/>
    <trip id="t_139" depart="1390.00" from="-400978919#0" to="106550090#17" type="t__truck"/>
    <trip id="t_140" depart="1400.00" from="27163042" to="-25630529#3" type="t__truck"/>
    <trip id="t_141" depart="1410.00" from="128252747#7" to="-400978922#0" type="t__truck"/>
    <trip id="t_142" depart="1420.00" from="-899914841#4" to="80444869#7" type="t__truck"/>
    <trip id="t_143" depart="1430.00" from="494611384" to="-106546013#1" type="t__truck"/>
    <trip id="t_144" depart="1440.00" from="-88141674#2" to="-400978937#2" type="t__truck"/>
    <trip id="t_145" depart="1450.00" from="-105159760#0" to="400978926#1" type="t__truck"/>
    <trip id="t_146" depart="1460.00" from="1428609378#4" to="-400978919#0" type="t__truck"/>
    <trip id="t_147" depart="1470.00" from="288974458#0" to="105232030#27" type="t__truck"/>
    <trip id="t_148" depart="1480.00" from="-88141687#2" to="-105159761#1" type="t__truck"/>
    <trip id="t_149" depart="1490.00" from="-105232045#7" to="78828539#34" type="t__truck"/>
    <trip id="t_150" depart="1500.00" from="78828552#17" to="105232027#8" type="t__truck"/>
    <trip id="t_151" depart="1510.00" from="476424898#0" to="106546013#1" type="t__truck"/>
    <trip id="t_152" depart="1520.00" from="-23173789#1" to="-128252747#6" type="t__truck"/>
    <trip id="t_153" depart="1530.00" from="-41691152#1" to="78828552#7" type="t__truck"/>
    <trip id="t_154" depart="1540.00" from="40989954#1" to="711802514#5" type="t__truck"/>
    <trip id="t_155" depart="1550.00" from="78828551#1" to="-288794737#2" type="t__truck"/>
    <trip id="t_156" depart="1560.00" from="-33189690#7" to="-106550068#1" type="t__truck"/>
    <trip id="t_157" depart="1570.00" from="400978927#3" to="78828539#36" type="t__truck"/>
    <trip id="t_158" depart="1580.00" from="-80444862" to="113339437#1" type="t__truck"/>
    <trip id="t_159" depart="1590.00" from="-23173789#7" to="89562653" type="t__truck"/>
    <trip id="t_160" depart="1600.00" from="711802514#10" to="89562703#8" type="t__truck"/>
    <trip id="t_161" depart="1610.00" from="41691152#3" to="78828539#26" type="t__truck"/>
    <trip id="t_162" depart="1620.00" from="-105159772#10" to="33189593#3" type="t__truck"/>
    <trip id="t_163" depart="1630.00" from="-476424891#8" to="89562654#1" type="t__truck"/>
    <trip id="t_164" depart="1640.00" from="41691147#4" to="725476480#0" type="t__truck"/>
    <trip id="t_165" depart="1650.00" from="41691152#3" to="-400978924#1" type="t__truck"/>
    <trip id="t_166" depart="1660.00" from="400978937#2" to="-106550090#11" type="t__truck"/>
    <trip id="t_167" depart="1670.00" from="745826132#0" to="711802514#11" type="t__truck"/>
    <trip id="t_168" depart="1680.00" from="-288839028#0" to="41691163#3" type="t__truck"/>
    <trip id="t_169" depart="1690.00" from="-89562672#1" to="-41691157#0" type="t__truck"/>
    <trip id="t_170" depart="1700.00" from="40989954#0" to="-288974457#0" type="t__truck"/>
    <trip id="t_171" depart="1710.00" from="-105159772#0" to="-25630216#6" type="t__truck"/>
    <trip id="t_172" depart="1720.00" from="-419958546#0" to="725476480#1" type="t__truck"/>
    <trip id="t_173" depart="1730.00" from="89562703#10" to="-400978940#0" type="t__truck"/>
    <trip id="t_174" depart="1740.00" from="191555413#1" to="-80733949#0" type="t__truck"/>
    <trip id="t_175" depart="1750.00" from="89562711#2" to="105168446#0" type="t__truck"/>
    <trip id="t_176" depart="1760.00" from="89562656#0" to="-106550091" type="t__truck"/>
    <trip id="t_177" depart="1770.00" from="89562703#20" to="-25583275#3" type="t__truck"/>
    <trip id="t_178" depart="1780.00" from="89562689#3" to="-400978923#2" type="t__truck"/>
    <trip id="t_179" depart="1790.00" from="-106550078#1" to="-89562658#9" type="t__truck"/>
    <trip id="t_180" depart="1800.00" from="288839028#8" to="-41691163#5" type="t__truck"/>
    <trip id="t_181" depart="1810.00" from="106546047" to="105159772#1" type="t__truck"/>
    <trip id="t_182" depart="1820.00" from="-78828539#22" to="106545970#6" type="t__truck"/>
    <trip id="t_183" depart="1830.00" from="-376714133#1" to="288780409#1" type="t__truck"/>
    <trip id="t_184" depart="1840.00" from="-100834037#3" to="88141693#4" type="t__truck"/>
    <trip id="t_185" depart="1850.00" from="105159774#5" to="288839028#9" type="t__truck"/>
    <trip id="t_186" depart="1860.00" from="288974458#1" to="25583275#0" type="t__truck"/>
    <trip id="t_187" depart="1870.00" from="-711802514#1" to="-105232041#0" type="t__truck"/>
    <trip id="t_188" depart="1880.00" from="23961342" to="-476424900#1" type="t__truck"/>
    <trip id="t_189" depart="1890.00" from="-41691155#2" to="53505128" type="t__truck"/>
    <trip id="t_190" depart="1900.00" from="288780408#4" to="-41691152#6" type="t__truck"/>
    <trip id="t_191" depart="1910.00" from="-41691152#11" to="-88141673#0" type="t__truck"/>
    <trip id="t_192" depart="1920.00" from="-78828552#15" to="-41691149#8" type="t__truck"/>
    <trip id="t_193" depart="1930.00" from="-106550095#9" to="-893735984" type="t__truck"/>
    <trip id="t_194" depart="1940.00" from="89562658#10" to="25583275#3" type="t__truck"/>
    <trip id="t_195" depart="1950.00" from="78828552#14" to="106550096" type="t__truck"/>
    <trip id="t_196" depart="1960.00" from="-41691147#14" to="105232030#12" type="t__truck"/>
    <trip id="t_197" depart="1970.00" from="-100834037#0" to="-40989963#1" type="t__truck"/>
    <trip id="t_198" depart="1980.00" from="-88141693#0" to="106545982#2" type="t__truck"/>
    <trip id="t_199" depart="1990.00" from="23173789#4" to="-89562705#0" type="t__truck"/>
    <trip id="t_200" depart="2000.00" from="-89562658#1" to="-288839028#1" type="t__truck"/>
    <trip id="t_201" depart="2010.00" from="-89562703#17" to="80444864" type="t__truck"/>
    <trip id="t_202" depart="2020.00" from="40989954#1" to="-25561514#0" type="t__truck"/>
    <trip id="t_203" depart="2030.00" from="-106545960#7" to="105159772#4" type="t__truck"/>
    <trip id="t_204" depart="2040.00" from="128252747#4" to="-494758078" type="t__truck"/>
    <trip id="t_205" depart="2050.00" from="41691163#10" to="376714133#5" type="t__truck"/>
    <trip id="t_206" depart="2060.00" from="25561499#24" to="-288974454#2" type="t__truck"/>
    <trip id="t_207" depart="2070.00" from="-25630216#4" to="-105159772#13" type="t__truck"/>
    <trip id="t_208" depart="2080.00" from="-33189690#15" to="-902777249#1" type="t__truck"/>
    <trip id="t_209" depart="2090.00" from="49840960#1" to="-105232045#4" type="t__truck"/>
    <trip id="t_210" depart="2100.00" from="-878236050" to="173522653#1" type="t__truck"/>
    <trip id="t_211" depart="2110.00" from="-25630215#3" to="25630529#13" type="t__truck"/>
    <trip id="t_212" depart="2120.00" from="-904673614#0" to="-376714133#0" type="t__truck"/>
    <trip id="t_213" depart="2130.00" from="23173789#6" to="-105159760#13" type="t__truck"/>
    <trip id="t_214" depart="2140.00" from="33189690#3" to="400978924#3" type="t__truck"/>
    <trip id="t_215" depart="2150.00" from="-106550068#1" to="-89562655#3" type="t__truck"/>
    <trip id="t_216" depart="2160.00" from="-25561499#9" to="89562681" type="t__truck"/>
    <trip id="t_217" depart="2170.00" from="105159764#4" to="-105168446#6" type="t__truck"/>
    <trip id="t_218" depart="2180.00" from="-33189690#6" to="559446505#1" type="t__truck"/>
    <trip id="t_219" depart="2190.00" from="-89562661#4" to="41691152#11" type="t__truck"/>
    <trip id="t_220" depart="2200.00" from="25561499#12" to="902777248#3" type="t__truck"/>
    <trip id="t_221" depart="2210.00" from="106545982#1" to="89562661#20" type="t__truck"/>
    <trip id="t_222" depart="2220.00" from="78828539#5" to="106550095#2" type="t__truck"/>
    <trip id="t_223" depart="2230.00" from="288780408#3" to="105159771#15" type="t__truck"/>
    <trip id="t_224" depart="2240.00" from="476424891#2" to="105232030#12" type="t__truck"/>
    <trip id="t_225" depart="2250.00" from="78828549#1" to="33189690#7" type="t__truck"/>
    <trip id="t_226" depart="2260.00" from="-89562703#21" to="-400978917#4" type="t__truck"/>
    <trip id="t_227" depart="2270.00" from="-33189690#2" to="23173789#0" type="t__truck"/>
    <trip id="t_228" depart="2280.00" from="400978914#10" to="105159774#7" type="t__truck"/>
    <trip id="t_229" depart="2290.00" from="106550095#8" to="-400978936#0" type="t__truck"/>
    <trip id="t_230" depart="2300.00" from="-106545952#0" to="-40989955" type="t__truck"/>
    <trip id="t_231" depart="2310.00" from="-400978917#9" to="-476424891#6" type="t__truck"/>
    <trip id="t_232" depart="2320.00" from="105159774#8" to="-225687643" type="t__truck"/>
    <trip id="t_233" depart="2330.00" from="-288974418" to="25630529#0" type="t__truck"/>
    <trip id="t_234" depart="2340.00" from="25630529#1" to="-105232030#28" type="t__truck"/>
    <trip id="t_235" depart="2350.00" from="-80444868#0" to="105232027#16" type="t__truck"/>
    <trip id="t_236" depart="2360.00" from="-878249329#0" to="-283440274" type="t__truck"/>
    <trip id="t_237" depart="2370.00" from="-878571563" to="80444869#6" type="t__truck"/>
    <trip id="t_238" depart="2380.00" from="106545960#1" to="25630529#11" type="t__truck"/>
    <trip id="t_239" depart="2390.00" from="560408569#0" to="400978918#2" type="t__truck"/>
    <trip id="t_240" depart="2400.00" from="-78828539#11" to="-105159760#14" type="t__truck"/>
    <trip id="t_241" depart="2410.00" from="-49850019#0" to="376718512#4" type="t__truck"/>
    <trip id="t_242" depart="2420.00" from="49850019#0" to="89562668" type="t__truck"/>
    <trip id="t_243" depart="2430.00" from="-878249329#6" to="376714131" type="t__truck"/>
    <trip id="t_244" depart="2440.00" from="105168427#14" to="106550090#14" type="t__truck"/>
    <trip id="t_245" depart="2450.00" from="-288794737#6" to="-288974406#2" type="t__truck"/>
    <trip id="t_246" depart="2460.00" from="-89562654#0" to="-105159772#8" type="t__truck"/>
    <trip id="t_247" depart="2470.00" from="-476424898#8" to="25583275#7" type="t__truck"/>
    <trip id="t_248" depart="2480.00" from="-78828552#4" to="-25561499#30" type="t__truck"/>
    <trip id="t_249" depart="2490.00" from="-89562692" to="-128252747#7" type="t__truck"/>
    <trip id="t_250" depart="2500.00" from="106550091" to="-105159772#3" type="t__truck"/>
    <trip id="t_251" depart="2510.00" from="-78828544#5" to="105232053" type="t__truck"/>
    <trip id="t_252" depart="2520.00" from="-105159772#19" to="23173789#19" type="t__truck"/>
    <trip id="t_253" depart="2530.00" from="-128252747#4" to="-89562703#33" type="t__truck"/>
    <trip id="t_254" depart="2540.00" from="-105168446#2" to="-78828539#9" type="t__truck"/>
    <trip id="t_255" depart="2550.00" from="-25630529#7" to="-476424899#2" type="t__truck"/>
    <trip id="t_256" depart="2560.00" from="376718512#10" to="-78828539#9" type="t__truck"/>
    <trip id="t_257" depart="2570.00" from="33189690#6" to="476424899#10" type="t__truck"/>
    <trip id="t_258" depart="2580.00" from="-376714130#1" to="-106545960#6" type="t__truck"/>
    <trip id="t_259" depart="2590.00" from="-105159771#20" to="105232027#0" type="t__truck"/>
    <trip id="t_260" depart="2600.00" from="960080894" to="-710509165" type="t__truck"/>
    <trip id="t_261" depart="2610.00" from="23173789#10" to="400978937#5" type="t__truck"/>
    <trip id="t_262" depart="2620.00" from="23173789#13" to="376718512#8" type="t__truck"/>
    <trip id="t_263" depart="2630.00" from="89562661#11" to="-25630529#18" type="t__truck"/>
    <trip id="t_264" depart="2640.00" from="-105159771#23" to="-23627726#1" type="t__truck"/>
    <trip id="t_265" depart="2650.00" from="-106550095#7" to="25561514#2" type="t__truck"/>
    <trip id="t_266" depart="2660.00" from="105232030#0" to="-288839029" type="t__truck"/>
    <trip id="t_267" depart="2670.00" from="25630216#1" to="400978922#3" type="t__truck"/>
    <trip id="t_268" depart="2680.00" from="-25561499#22" to="106550090#23" type="t__truck"/>
    <trip id="t_269" depart="2690.00" from="33189690#17" to="-106550090#6" type="t__truck"/>
    <trip id="t_270" depart="2700.00" from="41691163#15" to="89562701#0" type="t__truck"/>
    <trip id="t_271" depart="2710.00" from="-106550077" to="-105159772#16" type="t__truck"/>
    <trip id="t_272" depart="2720.00" from="-41691152#6" to="25583275#3" type="t__truck"/>
    <trip id="t_273" depart="2730.00" from="89562675#0" to="-80444869#1" type="t__truck"/>
    <trip id="t_274" depart="2740.00" from="25630529#7" to="-106545954" type="t__truck"/>
    <trip id="t_275" depart="2750.00" from="25583275#5" to="1428609378#4" type="t__truck"/>
    <trip id="t_276" depart="2760.00" from="-106546033" to="400978927#4" type="t__truck"/>
    <trip id="t_277" depart="2770.00" from="49850017#0" to="106550086" type="t__truck"/>
    <trip id="t_278" depart="2780.00" from="-106550090#6" to="899914841#7" type="t__truck"/>
    <trip id="t_279" depart="2790.00" from="400978929#18" to="-701022113" type="t__truck"/>
    <trip id="t_280" depart="2800.00" from="-88141687#3" to="-78828539#19" type="t__truck"/>
    <trip id="t_281" depart="2810.00" from="100834037#2" to="-559446505#0" type="t__truck"/>
    <trip id="t_282" depart="2820.00" from="49840960#0" to="476424891#0" type="t__truck"/>
    <trip id="t_283" depart="2830.00" from="-106546096#1" to="89562689#4" type="t__truck"/>
    <trip id="t_284" depart="2840.00" from="1428541328" to="476424898#3" type="t__truck"/>
    <trip id="t_285" depart="2850.00" from="25630529#11" to="-89562661#10" type="t__truck"/>
    <trip id="t_286" depart="2860.00" from="288974406#6" to="89562703#0" type="t__truck"/>
    <trip id="t_287" depart="2870.00" from="-400978917#5" to="41691157#0" type="t__truck"/>
    <trip id="t_288" depart="2880.00" from="105159774#4" to="-904673614#7" type="t__truck"/>
    <trip id="t_289" depart="2890.00" from="-89562653" to="288974458#0" type="t__truck"/>
    <trip id="t_290" depart="2900.00" from="-400978917#2" to="560408571#0" type="t__truck"/>
    <trip id="t_291" depart="2910.00" from="476424891#2" to="-106545970#6" type="t__truck"/>
    <trip id="t_292" depart="2920.00" from="78828539#11" to="-376714133#0" type="t__truck"/>
    <trip id="t_293" depart="2930.00" from="-89562689#1" to="106550092" type="t__truck"/>
    <trip id="t_294" depart="2940.00" from="-78828534#8" to="-105159772#8" type="t__truck"/>
    <trip id="t_295" depart="2950.00" from="49850017#1" to="-25630213#0" type="t__truck"/>
    <trip id="t_296" depart="2960.00" from="-25630529#7" to="41691149#4" type="t__truck"/>
    <trip id="t_297" depart="2970.00" from="-476424899#9" to="78828539#24" type="t__truck"/>
    <trip id="t_298" depart="2980.00" from="25630216#12" to="-400978937#1" type="t__truck"/>
    <trip id="t_299" depart="2990.00" from="-105159761#2" to="89562661#16" type="t__truck"/>
    <trip id="t_300" depart="3000.00" from="-106545970#0" to="288974405" type="t__truck"/>
    <trip id="t_301" depart="3010.00" from="-899914841#4" to="400978914#12" type="t__truck"/>
    <trip id="t_302" depart="3020.00" from="25583275#5" to="23173860#0" type="t__truck"/>
    <trip id="t_303" depart="3030.00" from="-902777247#6" to="41691147#14" type="t__truck"/>
    <trip id="t_304" depart="3040.00" from="-106545982#3" to="-288974406#6" type="t__truck"/>
    <trip id="t_305" depart="3050.00" from="25583275#7" to="-41691157#3" type="t__truck"/>
    <trip id="t_306" depart="3060.00" from="106545952#0" to="-902777248#0" type="t__truck"/>
    <trip id="t_307" depart="3070.00" from="105159772#13" to="-89562655#3" type="t__truck"/>
    <trip id="t_308" depart="3080.00" from="33189690#12" to="-476424902" type="t__truck"/>
    <trip id="t_309" depart="3090.00" from="25630216#4" to="-400978929#12" type="t__truck"/>
    <trip id="t_310" depart="3100.00" from="-33189770" to="-106550096" type="t__truck"/>
    <trip id="t_311" depart="3110.00" from="-25630215#0" to="-106550095#7" type="t__truck"/>
    <trip id="t_312" depart="3120.00" from="105159774#0" to="400978917#3" type="t__truck"/>
    <trip id="t_313" depart="3130.00" from="-25583275#22" to="-288839028#6" type="t__truck"/>
    <trip id="t_314" depart="3140.00" from="-89562709" to="288974420#0" type="t__truck"/>
    <trip id="t_315" depart="3150.00" from="89562703#5" to="105168401#6" type="t__truck"/>
    <trip id="t_316" depart="3160.00" from="-400978929#18" to="-106546075" type="t__truck"/>
    <trip id="t_317" depart="3170.00" from="-25630215#3" to="-288974454#9" type="t__truck"/>
    <trip id="t_318" depart="3180.00" from="-25583275#1" to="-105159771#0" type="t__truck"/>
    <trip id="t_319" depart="3190.00" from="105159772#4" to="-400978936#0" type="t__truck"/>
    <trip id="t_320" depart="3200.00" from="89562703#30" to="105232030#4" type="t__truck"/>