<?xml version="1.0" encoding="UTF-8"?>

<!-- generated on 2026-01-26T23:01:51.471178+00:00 by Eclipse SUMO duarouter 1.25.0
<duarouterConfiguration xmlns:xsi="http://www.w3.org/2001/XMLSchema-instance" xsi:noNamespaceSchemaLocation="http://sumo.dlr.de/xsd/duarouterConfiguration.xsd">

    <input>
        <net-file value="osm.net.xml"/>
        <route-files value="trips/carDefault.trips.xml,trips/busDefault.trips.xml,trips/truckDefault.trips.xml"/>
    </input>

    <output>
        <output-file value="routes/default.rou.xml"/>
    </output>

    <processing>
        <remove-loops value="true"/>
    </processing>

    <report>
        <ignore-errors value="true"/>
    </report>

</duarouterConfiguration>
-->

<routes xmlns:xsi="http://www.w3.org/2001/XMLSchema-instance" xsi:noNamespaceSchemaLocation="http://sumo.dlr.de/xsd/routes_file.xsd">
    <vType id="c__passenger" vClass="passenger" guiShape="passenger"/>
    <vehicle id="c_1" type="c__passenger" depart="2.50">
        <route edges="400978922#3 476424892 400978919#1 89562680 376714130#0 376714130#1 376714130#2 89562653 476424900#0 476424900#1 476424900#2 476424899#0 476424899#1 476424899#2 476424899#4 476424899#5 476424899#8 476424899#9 476424899#10 78828539#0 78828539#1 78828539#2 78828539#5 78828539#6 78828539#8 78828539#9 78828539#11 78828539#12 78828539#14 78828539#15 78828539#16 -78828552#17 -78828552#15 -78828552#14 -78828552#13 -78828552#12 -78828552#10 -78828552#7 -78828552#4 -78828552#3 -78828552#2 400978914#10 400978914#11 288974405 288974450 -106545982#5 -106545982#4 -106545982#3 -106545982#2 -106545982#1 -106545982#0 -106545960#11 -106545960#10 -106545960#9 288974420#0"/>
    </vehicle>
    <vehicle id="c_2" type="c__passenger" depart="5.00">
        <route edges="-288974454#0 78828552#2 78828552#3 78828552#4 78828552#7 78828552#10 78828552#12 78828552#13 78828552#14 78828552#15 78828552#17 -78828539#16 -78828539#15 -78828539#14 78828534#0 78828534#2 78828534#3 78828534#4 78828534#5 78828534#7 78828534#8 78828534#11 78828534#13 78828534#14 -41691155#3 -41691155#2 -41691155#1 -41691155#0 -41691163#26 -41691163#25 -41691163#24 -41691163#23 -41691163#20 -41691163#19 -41691163#17 -41691163#16 -41691163#15 -41691163#11 -41691163#10 -41691163#9 -41691163#5 -41691163#3 -41691163#2 -41691163#0 25583275#5 25583275#6 25583275#7 25583275#9 25583275#10 25583275#11 25583275#12 25583275#13 25583275#14 25583275#15 25583275#17 25583275#18 25583275#21 25583275#22"/>
    </vehicle>
    <vehicle id="c_3" type="c__passenger" depart="7.50">
        <route edges="78828539#8 78828539#9 78828539#11 78828539#12 78828539#14 78828539#15 78828539#16 -78828552#17 -78828552#15 -78828552#14 -78828552#13 -78828552#12 -78828552#10 -78828552#7 -78828552#4 -78828552#3 -78828552#2 400978914#10 400978914#11 288974405 288974450 -106545982#5 -106545982#4 -106545982#3 -106545982#2 -106545982#1 -106545982#0 -106545960#11 -106545960#10 -106545960#9 -106545960#7 -106545960#6 -106545960#5 -106545960#3 -106545960#2 -106545960#1 -106545960#0 -106545970#12 -106545970#10 -106545970#9 -106545970#8 -106545970#7 -106545970#6"/>
    </vehicle>
    <vehicle id="c_4" type="c__passenger" depart="10.00">
        <route edges="-88141673#2 -88141673#0 80444865#1 80444865#2 -288974458#1 -288974458#0 80444862 80444869#0 80444869#1 80444869#2 80444869#3 80444869#6 80444869#7 23173789#10 23173789#11 23173789#12 23173789#13 23173789#14 23173789#16 23173789#17 23173789#19 105159760#0 105159760#1 105159760#3 105159760#4 105159760#6 105159760#7 -902777248#3 -902777248#2 -902777248#1 -902777248#0 105159772#0 105159772#1 105159774#0"/>
    </vehicle>
    <vehicle id="c_5" type="c__passenger" depart="12.50">
        <route edges="-288794737#1 -904673614#10 -904673614#9 -904673614#8 -904673614#7 -904673614#6 -904673614#5 -904673614#4 -904673614#3 -904673614#2 -904673614#0 960080894 23173785#2 23961342 725476476 725476477#0 725476477#1 725476477#2 725476477#3 23173788 476424897 559446505#1 559446505#2 559446505#3 400978913#2 400978913#4 400978913#5 400978914#1 400978914#2 400978914#4 400978914#6 400978914#8 400978914#9 400978914#10 400978914#11 400978914#12 420093222 419958542 23173789#0 23173789#1 23173789#3 23173789#4 23173789#5 23173789#6 23173789#7 23173789#10 23173789#11 23173789#12 23173789#13 23173789#14 23173789#16 23173789#17 23173789#19 105159760#0 105159760#1 105159760#3 105159760#4 105159760#6 105159760#7 -902777248#3 -902777248#2 -902777248#1 -902777248#0 -902777249#1 105159771#0 105159771#1 105159771#4 105159771#5 105159771#8 105159771#9 105159771#11 105159771#12 105159771#13 105159771#15 105159771#16"/>
    </vehicle>
    <vehicle id="c_6" type="c__passenger" depart="15.00">
        <route edges="-105159772#17 -105159772#16 -105159772#14 -105159772#13 -105159772#10 -105159772#9 -105159772#8 -105159772#5 -105159772#4 -105159772#3 -105159772#1 -105159772#0 902777248#0 902777248#1 902777248#2 902777248#3 -105159760#7 -105159760#6 -105159760#4 -105159760#3 -105159760#1 -105159760#0 -476424916#0 -23173789#17 -23173789#16 -23173789#14 -23173789#13 -23173789#12 -23173789#11 -23173789#10 -23173789#7 -23173789#6 -23173789#5 -23173789#4 -23173789#3 -23173789#1 -23173789#0 -419958542 -559492773 -400978914#12 -400978914#11 -400978914#10 -400978914#9 -400978914#8 -400978914#6 -400978914#4 -400978914#2 -400978914#1 -400978914#0 -400978913#4 -400978913#2 -400978913#1 -559446505#2 -559446505#1 -559446505#0 23961341 725476478#0 23173787 -23173785#2 -23173785#1 904673614#0 -288794788#1 -25630529#25 -25630529#24 -25630529#23 -25630529#21 -25630529#20 -25630529#19 -25630529#18 -25630529#17"/>
    </vehicle>
    <vehicle id="c_7" type="c__passenger" depart="17.50">
        <route edges="-23173789#1 -23173789#0 -419958542 -400978937#5 -400978937#4 -400978937#3 -400978937#2 -400978937#1 -400978936#2 -400978936#1 -400978936#0 -25583275#22 -25583275#21 -25583275#18 -25583275#17 -25583275#15 -25583275#14 -25583275#13 -25583275#12 -25583275#11 -25583275#10 -25583275#9 -25583275#7 -25583275#6 -25583275#5 -25583275#4 -25583275#3 -25583275#2 -25583275#1 -25583275#0 -476424891#9 -476424891#8 -476424891#7 -476424891#6 -476424891#4 -476424891#3 -476424891#0 -476424902 -400978919#1 -400978919#0 -400978922#3 -400978922#0 -400978918#0 -400978917#9 105232030#0 105232030#1 105232027#0 105232027#1 105232027#3 105232027#4 105232027#5 105232027#6 105232027#7"/>
    </vehicle>
    <vehicle id="c_8" type="c__passenger" depart="20.00">
        <route edges="-288794737#6 -288794737#4 -288794737#3 -288794737#2 -288794737#1 -904673614#10 -904673614#9 -904673614#8 -904673614#7 -904673614#6 -904673614#5 -904673614#4 -904673614#3 -904673614#2 -904673614#0 960080894 23173785#2 23961342 725476476 725476477#0 725476477#1 725476477#2 725476477#3 23173788 476424897 559446505#1 559446505#2 559446505#3 400978913#2 400978913#4 400978913#5 400978914#1 400978914#2 400978914#4 400978914#6 400978914#8 400978914#9 400978914#10 400978914#11 288974405 288974450 -106545982#5 -106545982#4 -106545982#3 -106545982#2 -106545982#1 -106545982#0 -106545960#11 -106545960#10 -106545960#9 -106545960#7 -106545960#6 -106545960#5 -106545960#3 -106545960#2 -106545960#1 -106545960#0 -106545970#12 -106545970#10 -106545970#9 -106545970#8 -106545970#7 -106545970#6 -106545970#5 -106545970#4 -106545970#2 -106545970#1 -106545970#0 106546033"/>
    </vehicle>
    <vehicle id="c_9" type="c__passenger" depart="22.50">
        <route edges="41691152#12 41691152#13 400978913#4 400978913#5 400978914#1 400978914#2 400978914#4 400978914#6 400978914#8 400978914#9 400978914#10 400978914#11 400978914#12 420093222 419958542 23173789#0 23173789#1 23173789#3 23173789#4 23173789#5 23173789#6 23173789#7 23173789#10 23173789#11 23173789#12 23173789#13 23173789#14 23173789#16 23173789#17 23173789#19 105159760#0 105159760#1 105159760#3 105159760#4 105159760#6 105159760#7 105159760#10 105159760#11 105159760#13 105159760#14 105159760#17"/>
    </vehicle>
    <vehicle id="c_10" type="c__passenger" depart="25.00">
        <route edges="-41691149#4 -41691149#3 -41691149#2 -41691149#1 -41691149#0 41691155#0 41691155#1 41691155#2 41691155#3 -78828534#14 -78828534#13 -78828534#11 -78828534#8 -78828534#7 -78828534#5 -78828534#4 -78828534#3 -78828534#2 -78828534#0 -78828539#12 -78828539#11 -78828539#9 -78828539#8 -78828539#6 -78828539#5 -78828539#2 -78828539#1 -78828539#0 878249329#0 878249329#1 878249329#2 878249329#3 878249329#4 878249329#6 878249329#7 878249329#9 878249329#11 41691152#0 41691152#1 41691152#2 41691152#3 41691152#6 41691152#7 41691152#10 41691152#11 41691152#12 41691152#13 -400978913#2 -400978913#1 -559446505#2 -559446505#1 -559446505#0 23961341 725476478#0 23173787 -23173785#2 -23173785#1 904673614#0 -288794788#1 -25630529#25 -25630529#24 -25630529#23 -25630529#21 -25630529#20 -25630529#19 -25630529#18"/>
    </vehicle>
    <vehicle id="c_11" type="c__passenger" depart="27.50">
        <route edges="-476424899#9 -476424899#8 -476424899#5 -476424899#4 -476424899#2 -476424899#1 -476424899#0 -476424900#2 -476424900#1 -476424900#0 -89562653 -376714130#2 -376714130#1 -376714130#0 -878236050 -400978919#1 -400978919#0 40989444 -33189690#21"/>
    </vehicle>
    <vehicle id="c_12" type="c__passenger" depart="30.00">
        <route edges="-89562672#0 -89562658#12 -89562658#11 -89562658#10 -89562658#9 -89562658#8 -89562658#5 -89562658#4 -89562658#1 -89562658#0 -25630218#0 -560408569#1 -560408569#0 -904673614#0 -560408571#1 -560408571#0 -560408570 -494611386#1 -494611386#0 -400978921 -494611366 494611373 494611384 400978920#0 494611382#0 400978917#2 400978917#3 -89562654#4 -89562654#2 -89562654#1 -89562654#0 89562711#0 89562711#1 89562711#2 288974418 -49850017#0"/>
    </vehicle>
    <vehicle id="c_13" type="c__passenger" depart="32.50">
        <route edges="-106545982#2 -106545982#1 -106545982#0 106546024#0"/>
    </vehicle>
    <vehicle id="c_14" type="c__passenger" depart="35.00">
        <route edges="494611386#1 494611386#2 560408571#0 560408571#1 904673614#0 904673614#2 904673614#3 904673614#4 904673614#5 904673614#6 904673614#7 904673614#8 904673614#9 904673614#10 -25630216#13 -25630216#12 -25630216#11 -25630216#10 -25630216#8 -25630216#6 -25630216#5 -25630216#4 -25630216#3 -25630216#2 -25630216#1 -25630216#0 106550068#0 106550068#1 106550091 106550073 106550095#0 106550090#0 106550090#2 106550090#3 106550090#6 106550090#7 106550090#10 106550090#11 106550090#14 106550090#15"/>
    </vehicle>
    <vType id="b__bus" vClass="bus" guiShape="bus"/>
    <vehicle id="b_1" type="b__bus" depart="37.00">
        <route edges="400978922#3 476424892 400978919#1 89562680 376714130#0 376714130#1 376714130#2 89562653 476424900#0 476424900#1 476424900#2 476424899#0 476424899#1 476424899#2 476424899#4 476424899#5 476424899#8 476424899#9 476424899#10 78828539#0 78828539#1 78828539#2 78828539#5 78828539#6 78828539#8 78828539#9 78828539#11 78828539#12 78828539#14 78828539#15 78828539#16 -78828552#17 -78828552#15 -78828552#14 -78828552#13 -78828552#12 -78828552#10 -78828552#7 -78828552#4 -78828552#3 -78828552#2 400978914#10 400978914#11 288974405 288974450 -106545982#5 -106545982#4 -106545982#3 -106545982#2 -106545982#1 -106545982#0 -106545960#11 -106545960#10 -106545960#9 288974420#0"/>
    </vehicle>
    <vType id="t__truck" vClass="truck" guiShape="truck"/>
    <vehicle id="t_1" type="t__truck" depart="37.00">
        <route edges="400978922#3 476424892 400978919#1 89562680 376714130#0 376714130#1 376714130#2 89562653 476424900#0 476424900#1 476424900#2 476424899#0 476424899#1 476424899#2 476424899#4 476424899#5 476424899#8 476424899#9 476424899#10 78828539#0 78828539#1 78828539#2 78828539#5 78828539#6 78828539#8 78828539#9 78828539#11 78828539#12 78828539#14 78828539#15 78828539#16 -78828552#17 -78828552#15 -78828552#14 -78828552#13 -78828552#12 -78828552#10 -78828552#7 -78828552#4 -78828552#3 -78828552#2 400978914#10 400978914#11 288974405 288974450 -106545982#5 -106545982#4 -106545982#3 -106545982#2 -106545982#1 -106545982#0 -106545960#11 -106545960#10 -106545960#9 288974420#0"/>
    </vehicle>
    <vehicle id="c_15" type="c__passenger" depart="37.50">
        <route edges="41691152#0 41691152#1 41691152#2 41691152#3 41691152#6 41691152#7 41691152#10 41691152#11 41691152#12 41691152#13 400978913#4 400978913#5 400978914#1 400978914#2 400978914#4 400978914#6 400978914#8 400978914#9 288974454#0 288974454#1 288974454#2 288974454#4 288974454#6 288974454#7 288974454#8 288974454#9"/>
    </vehicle>
    <vehicle id="c_16" type="c__passenger" depart="40.00">
        <route edges="-105159774#0 -105159772#1 -105159772#0 -902777249#1 -105159764#5 -105159764#4 -105159764#2 -902796264 -105159768 105159763#0 88213886#0 88213886#1 25583275#3 25583275#4 41691163#0 41691163#2 41691163#3 41691163#5 41691163#9 41691163#10 41691163#11 41691163#15 41691163#16 41691163#17 41691163#19 41691163#20 41691163#23 41691163#24 41691163#25 41691163#26 41691155#0 41691155#1 41691155#2 41691155#3 41691155#5 41691155#6 41691155#8 376718512#0 376718512#1 376718512#2 376718512#4 376718512#8 376718512#9 376718512#10 41691164#1 41691164#2 41691164#3 41691164#4 41691164#5 89562703#0 89562703#2 89562703#4 89562703#5 89562703#6 89562703#8 89562703#9 89562703#10 89562703#12 89562703#13 89562703#16 89562703#17 89562703#20 89562703#21 89562703#22 89562703#23 89562703#24 89562703#26 89562703#28 89562703#29 89562703#30"/>
    </vehicle>
    <vehicle id="c_17" type="c__passenger" depart="42.50">
        <route edges="-78828534#7 -78828534#5 -78828534#4 -78828534#3 -78828534#2 -78828534#0 -78828539#12 -78828539#11 -78828539#9 -78828539#8 -78828539#6 -78828539#5 -78828539#2 -78828539#1 -78828539#0 -476424899#10 -476424899#9 -476424899#8 -476424899#5 -476424899#4 -476424899#2 -476424899#1 -476424899#0 -476424900#2 -476424900#1 -476424900#0 -89562653 -376714130#2 -376714130#1 -376714130#0 -878236050 -400978919#1 -400978919#0 -400978922#3 -400978922#0 -400978918#0 -400978917#9 105232030#0 105232030#1 105232030#2 105232030#4 105232030#5 105232030#6 105232030#9 105232030#10 105232030#12 105232030#13 105232030#16 105232030#17 105232030#20 105232030#23 105232030#24 105232030#27"/>
    </vehicle>
    <vehicle id="c_19" type="c__passenger" depart="47.50">
        <route edges="705955085#3 -106550069 -106550095#7 -106550095#6 -106550095#5 -106550095#2 -106550095#1 -106550095#0 -106550073 -106550091 -106550068#1 -106550068#0 25630216#0 25630216#1 25630216#2 25630216#3 25630216#4 25630216#5 25630216#6 25630216#8 25630216#10 25630216#11 25630216#12 25630216#13 -904673614#10 -904673614#9 -904673614#8 -904673614#7 -904673614#6 -904673614#5 -904673614#4 -904673614#3 -904673614#2 -904673614#0 960080894 23173785#2 23961342 725476476 725476477#0 725476477#1 725476477#2 725476477#3 23173788 476424897 559446505#1 559446505#2 559446505#3 400978913#2 400978913#4 400978913#5 400978914#1 400978914#2 400978914#4 400978914#6 400978914#8 400978914#9 400978914#10 400978914#11 288974405 288974450 -106545982#5 -106545982#4 -106545982#3 -106545982#2 -106545982#1 -106545982#0 106546024#0 106546024#1 106546024#2 106546024#4 106546024#5 106546019#0 106546019#1 106546019#5 106546019#6 106546081#0 106546081#1 106545970#1 106545970#2 106545970#4 106545970#5 106545970#6 106545970#7"/>
    </vehicle>
    <vehicle id="c_20" type="c__passenger" depart="50.00">
        <route edges="25630216#8 25630216#10 25630216#11 25630216#12 25630216#13 904673614#11 904673614#12 904673614#13 904673614#14 904673614#15 904673614#16 904673614#19 25630213#0 25630213#1 25630213#3 25630213#4 25630213#7 25630213#8 25630213#9 400978930 400978929#1 400978929#5 400978929#6 53505126 105168427#0 105168427#2 105168427#6"/>
    </vehicle>
    <vehicle id="c_21" type="c__passenger" depart="52.50">
        <route edges="288974406#1 288974406#2 288974406#3 288974406#4 288974406#5 288974406#6 -78832776#0 -1136015477#1 -1136015477#0 -400978923#2 -400978923#0 -419958545#1 -419958545#0 -400978937#5 -400978937#4 -400978937#3 -400978937#2 -400978937#1 -400978936#2 -400978936#1 -400978936#0 -25583275#22 -25583275#21 -25583275#18 -25583275#17 -25583275#15 -25583275#14 -25583275#13 -25583275#12 -25583275#11 -25583275#10 -25583275#9 -25583275#7 -25583275#6 -25583275#5 41691163#0 41691163#2 41691163#3 41691163#5 41691147#1 41691147#4 41691147#7 41691147#10 41691147#11 41691147#13 41691147#14"/>
    </vehicle>
    <vehicle id="c_22" type="c__passenger" depart="55.00">
        <route edges="-106545959#3 -106545959#2 -106545959#1 106545970#8 106545970#9 106545970#10 106545970#12 106545970#14 106545960#1 106545960#2 106545960#3 106545960#5 106545960#6 106545960#7 106545960#9 106545960#10 106545960#11 106545982#0 106545982#1 106545982#2 106545982#3 106545982#4 106545982#5 -78832776#1 -78832776#0 -1136015477#1 -1136015477#0 -400978923#2 -400978923#0 -419958545#1 -419958545#0 -400978937#5 -400978937#4 -400978937#3 -400978937#2 -400978937#1 -400978936#2 -400978936#1 -400978936#0 -25583275#22 -25583275#21 -25583275#18 -25583275#17 -25583275#15 -25583275#14 -25583275#13 -25583275#12 -25583275#11 -25583275#10 -25583275#9 -25583275#7 -25583275#6 -25583275#5 -25583275#4 -25583275#3 -25583275#2 -25583275#1 -25583275#0 -33189770 400978926#0 400978926#1 33189593#1 33189593#2 33189593#3 400978927#1 400978927#3 400978927#4 -33189690#21 -33189690#19 -33189690#18 -33189690#17 -33189690#15 -33189690#14 -33189690#13 -33189690#12"/>
    </vehicle>
    <vehicle id="c_23" type="c__passenger" depart="57.50">
        <route edges="-106546024#4 -106546024#2 -106546024#1 -106546024#0 106545982#0 106545982#1 106545982#2 106545982#3 106545982#4 106545982#5 -78832776#1 -78832776#0 -1136015477#1 -1136015477#0 -400978923#2 -400978923#0 -419958545#1 -419958545#0 -400978937#5"/>
    </vehicle>
    <vehicle id="c_24" type="c__passenger" depart="60.00">
        <route edges="1428541328 -26921982#2 494611382#0 400978917#2 400978917#3 -89562654#4 -89562654#2 -89562654#1 -89562654#0 -376714133#5 -376714133#4 -376714133#3 -376714133#2 -376714133#1 -376714133#0 -878571563 89562653 -41691157#3 -41691157#2 -41691157#0 41691164#9 41691164#10 41691164#11 -376718512#10 -376718512#9 -376718512#8 -376718512#4 -376718512#2 -376718512#1 -376718512#0 -41691155#8 -41691155#6 -41691155#5 -78828534#14 -78828534#13 -78828534#11 -78828534#8 -78828534#7 -78828534#5 -78828534#4"/>
    </vehicle>
    <vehicle id="c_25" type="c__passenger" depart="62.50">
        <route edges="-725476480#0 -106550068#1 -106550068#0 25630216#0 25630216#1 25630216#2 25630216#3 25630216#4 25630216#5 25630216#6 25630216#8 25630216#10 25630216#11 25630216#12 25630216#13 288794737#1"/>
    </vehicle>
    <vehicle id="c_26" type="c__passenger" depart="65.00">
        <route edges="-400978914#8 -400978914#6 -400978914#4 -400978914#2 -400978914#1 -400978914#0 -400978913#4 -400978913#2 -400978913#1 -559446505#2 -559446505#1 -559446505#0 23961341 725476478#0 23173787 -23173785#2 -23173785#1 904673614#0 560408569#0 560408569#1 560408569#2 89562658#0 89562658#1"/>
    </vehicle>
    <vehicle id="c_27" type="c__passenger" depart="67.50">
        <route edges="23173787 -23173785#2 -23173785#1 904673614#0 904673614#2 904673614#3 904673614#4 904673614#5 904673614#6 904673614#7 904673614#8 904673614#9 904673614#10 -25630216#13 -25630216#12 -25630216#11 -25630216#10 -25630216#8 -25630216#6 -25630216#5 -25630216#4 -25630216#3 -25630216#2 -25630216#1 -25630216#0 106550068#0 106550068#1 106550091 106550073 106550095#0 106550090#0 106550090#2 106550090#3 106550090#6 106550090#7"/>
    </vehicle>
    <vehicle id="c_28" type="c__passenger" depart="70.00">
        <route edges="25561499#28 25561499#29 25561499#30 25561499#31 25561499#33 25561499#34 400978917#8 400978917#9 400978917#10 400978918#2 400978922#3 476424892 400978919#1 89562680 376714130#0 376714130#1 376714130#2 89562653 476424900#0 476424900#1 476424900#2 476424899#0 476424899#1 476424899#2 476424899#4 476424899#5 476424899#8 476424899#9 476424899#10 78828539#0 78828539#1 78828539#2 78828539#5 78828539#6 78828539#8 78828539#9 78828539#11 78828539#12 78828539#14 78828539#15 78828539#16 -78828552#17 -78828552#15 -78828552#14 -78828552#13 -78828552#12 -78828552#10 -78828552#7 -78828552#4 -78828552#3 -78828552#2 288974454#0 288974454#1 288974454#2 288974454#4 288974454#6 288974454#7 288974454#8"/>
    </vehicle>
    <vehicle id="c_29" type="c__passenger" depart="72.50">
        <route edges="25561499#12 25561499#13 25561499#15 25561499#16 25561499#18 25561499#20 25561499#21 25561499#22 25561499#23 25561499#24 25561499#25 25561499#26 25561499#27 25561499#28 25561499#29 25561499#30 25561499#31 25561499#33 25561499#34 400978917#8 400978917#9 400978917#10 400978918#2 400978922#3 476424892 400978919#1 476424902 -89562703#33 -89562703#32 -89562703#30 -89562703#29 -89562703#28 -89562703#26 -89562703#24 -89562703#23 -89562703#22 -89562703#21 -89562703#20 -89562703#17 -89562703#16 -89562703#13 -89562703#12 -89562703#10 -89562703#9 -89562703#8 -89562703#6 -89562703#5 -89562703#4 -89562703#2 -89562703#0 41691164#6 41691164#7 41691164#8 41691164#9 41691164#10 41691164#11 -376718512#10 -376718512#9 -376718512#8 -376718512#4 -376718512#2 -376718512#1 -376718512#0 -41691155#8 -41691155#6 -41691155#5 -78828534#14 -78828534#13 -78828534#11 -78828534#8 -78828534#7 -78828534#5 -78828534#4 -78828534#3 -78828534#2 -78828534#0 -78828539#12 -78828539#11 -78828539#9"/>
    </vehicle>
    <vehicle id="b_2" type="b__bus" depart="74.00">
        <route edges="-288974454#0 78828552#2 78828552#3 78828552#4 78828552#7 78828552#10 78828552#12 78828552#13 78828552#14 78828552#15 78828552#17 -78828539#16 -78828539#15 -78828539#14 78828534#0 78828534#2 78828534#3 78828534#4 78828534#5 78828534#7 78828534#8 78828534#11 78828534#13 78828534#14 -41691155#3 -41691155#2 -41691155#1 -41691155#0 -41691163#26 -41691163#25 -41691163#24 -41691163#23 -41691163#20 -41691163#19 -41691163#17 -41691163#16 -41691163#15 -41691163#11 -41691163#10 -41691163#9 -41691163#5 -41691163#3 -41691163#2 -41691163#0 25583275#5 25583275#6 25583275#7 25583275#9 25583275#10 25583275#11 25583275#12 25583275#13 25583275#14 25583275#15 25583275#17 25583275#18 25583275#21 25583275#22"/>
    </vehicle>
    <vehicle id="t_2" type="t__truck" depart="74.00">
        <route edges="-288974454#0 78828552#2 78828552#3 78828552#4 78828552#7 78828552#10 78828552#12 78828552#13 78828552#14 78828552#15 78828552#17 -78828539#16 -78828539#15 -78828539#14 78828534#0 78828534#2 78828534#3 78828534#4 78828534#5 78828534#7 78828534#8 78828534#11 78828534#13 78828534#14 -41691155#3 -41691155#2 -41691155#1 -41691155#0 -41691163#26 -41691163#25 -41691163#24 -41691163#23 -41691163#20 -41691163#19 -41691163#17 -41691163#16 -41691163#15 -41691163#11 -41691163#10 -41691163#9 -41691163#5 -41691163#3 -41691163#2 -41691163#0 25583275#5 25583275#6 25583275#7 25583275#9 25583275#10 25583275#11 25583275#12 25583275#13 25583275#14 25583275#15 25583275#17 25583275#18 25583275#21 25583275#22"/>
    </vehicle>
    <vehicle id="c_30" type="c__passenger" depart="75.00">
        <route edges="902796264 105159764#2 105159764#4 105159764#5 902777249#1 902777248#0 902777248#1 902777248#2 902777248#3 -105159760#7 -105159760#6 -105159760#4 -105159760#3 -105159760#1 -105159760#0 -476424916#0 -23173789#17 -23173789#16 -23173789#14 -23173789#13 -23173789#12"/>
    </vehicle>
    <vehicle id="c_31" type="c__passenger" depart="77.50">
        <route edges="-105168446#7 -105168446#6 -105168446#4 -105168446#2 -105168446#1 -105168446#0 -53505126 -400978929#6 -400978929#5 -400978929#4 -400978929#0 -25630213#9 -25630213#8 -25630213#7 -25630213#4 -25630213#3 -25630213#1 -25630213#0 -904673614#19 -904673614#16 -904673614#15 -904673614#14 -904673614#13 -904673614#12 -904673614#11 -25630216#13 -25630216#12 -25630216#11 -25630216#10 -25630216#8 -25630216#6 -25630216#5 -25630216#4 -25630216#3 -25630216#2 -25630216#1 -25630216#0 -25630215#3 -25630215#2 -25630215#1 -25630215#0"/>
    </vehicle>
    <vehicle id="c_32" type="c__passenger" depart="80.00">
        <route edges="476424900#1 476424900#2 476424899#0 476424899#1 476424899#2 476424899#4 476424899#5 476424899#8 476424899#9 476424899#10 878249329#0 878249329#1 878249329#2 878249329#3 878249329#4 878249329#6 878249329#7 878249329#9 878249329#11 41691152#0 41691152#1 41691152#2 41691152#3 41691152#6 41691152#7 41691152#10 41691152#11 41691152#12 41691152#13 -400978913#2 -400978913#1 -559446505#2 -559446505#1 -559446505#0 23961341 725476478#0 725476478#1 725476476 27163042 -559446506 -400978929#18 -400978929#16 -400978929#12 -400978929#6"/>
    </vehicle>
    <vehicle id="c_33" type="c__passenger" depart="82.50">
        <route edges="288974406#3 288974406#4 288974406#5 288974406#6 -78832776#0 -1136015477#1 -1136015477#0 -400978923#2 -400978923#0 -419958545#1 -419958545#0 419958542 23173789#0 23173789#1 23173789#3 23173789#4 23173789#5 23173789#6 23173789#7 23173789#10 23173789#11 23173789#12 23173789#13 23173789#14 23173789#16 23173789#17 23173789#19 105159760#0 105159760#1 105159760#3 105159760#4 105159760#6 105159760#7 -902777248#3 -902777248#2 -902777248#1 -902777248#0 105159772#0 105159772#1 105159774#0 105159774#1 105159774#2 105159774#3 105159774#4"/>
    </vehicle>
    <vehicle id="c_34" type="c__passenger" depart="85.00">
        <route edges="-41691155#6 -41691155#5 -41691155#3 -41691155#2 -41691155#1 -41691155#0 -41691163#26 -41691163#25 -41691163#24 -41691163#23 -41691163#20 -41691163#19 -41691163#17 -41691163#16 -41691163#15 -41691163#11 -41691163#10 -41691163#9 -41691163#5 -41691163#3 -41691163#2 -41691163#0 -25583275#4 -25583275#3 -25583275#2 -25583275#1 -25583275#0 -476424891#9 -40989449#1 -40989449#0 -400978926#0"/>
    </vehicle>
    <vehicle id="c_35" type="c__passenger" depart="87.50">
        <route edges="25630529#3 25630529#6 25630529#7 25630529#10 25630529#11 25630529#12 25630529#13 25630529#14 25630529#17 25630529#18 25630529#19 25630529#20 25630529#21 25630529#23 25630529#24 25630529#25 288794788#1 560408569#0 560408569#1 560408569#2 89562658#0 89562658#1 89562658#4 89562658#5 89562658#8 89562658#9 89562658#10 89562658#11 89562658#12 89562658#14 89562658#15 89562658#16 89562658#18 89562658#19 89562658#20 89562658#21 89562658#22 89562658#23"/>
    </vehicle>
    <vehicle id="c_36" type="c__passenger" depart="90.00">
        <route edges="-78828534#13 -78828534#11 -78828534#8 -78828534#7 -78828534#5 -78828534#4 -78828534#3 -78828534#2 -78828534#0 78828539#14 78828539#15 78828539#16 78828539#19 78828539#20 78828539#21 78828539#22 78828539#23 78828539#24 78828539#25 78828539#26 78828539#28 78828539#30 400978940#0 400978940#1 400978937#1 400978937#2 400978937#3 400978937#4 400978937#5 419958542"/>
    </vehicle>
    <vehicle id="c_37" type="c__passenger" depart="92.50">
        <route edges="23173789#5 23173789#6 23173789#7 -80444869#7 -80444869#6 -80444869#3 -80444869#2 -80444869#1 -80444869#0 80444868#0 80444868#1"/>
    </vehicle>
    <vehicle id="c_38" type="c__passenger" depart="95.00">
        <route edges="876288098#1 -25583275#0 -476424891#9 -476424891#8 -476424891#7 -476424891#6 -476424891#4 -476424891#3 -476424891#0 -89562703#33 -89562703#32 -89562703#30 -89562703#29 -89562703#28 -89562703#26"/>
    </vehicle>
    <vehicle id="c_39" type="c__passenger" depart="97.50">
        <route edges="-400978914#12 -400978914#11 -400978914#10 -400978914#9 -400978914#8 -400978914#6 -400978914#4 -400978914#2 -400978914#1 -400978914#0 -400978913#4 -400978913#2 -400978913#1 -559446505#2 -559446505#1 -559446505#0 -80733949#1 -80733949#0 89562705#0 89562705#1 89562705#2 1428609378#1 1428609378#2 1428609378#4 -89562711#2 -89562711#1 -89562711#0 -376714133#5"/>
    </vehicle>
    <vehicle id="c_40" type="c__passenger" depart="100.00">
        <route edges="105232027#4 105232027#5 105232027#6 105232027#7 105232027#8 -105232045#7 -105232045#6 -105232045#5 -105232045#4 -105232045#1 -105232045#0 -105232027#1 -105232027#0 -105232030#1 -105232030#0 400978917#9 400978917#10 400978918#2 400978922#3 476424892 400978919#1"/>
    </vehicle>
    <vehicle id="c_41" type="c__passenger" depart="102.50">
        <route edges="106545960#10 106545960#11 106545982#0 106545982#1 106545982#2 106545982#3 106545982#4 106545982#5 -78832776#1 -78832776#0 -1136015477#1 -1136015477#0 -400978923#2 -400978923#0 -419958545#1 -419958545#0 -559492773 -400978914#12 -400978914#11 -400978914#10 78828552#2"/>
    </vehicle>
    <vehicle id="c_42" type="c__passenger" depart="105.00">
        <route edges="-78828551#4 -78828551#3 -78828551#2 -78828551#1 -78828551#0 -78828552#15 -78828552#14 -78828552#13 -78828552#12 -78828552#10 -78828552#7 -78828552#4 -78828552#3 -78828552#2 400978914#10 400978914#11 288974405 288974450 -78832776#1 -288974406#6 -288974406#5 -288974406#4 -288974406#3 -288974406#2"/>
    </vehicle>
    <vehicle id="c_43" type="c__passenger" depart="107.50">
        <route edges="904673614#8 904673614#9 904673614#10 904673614#11 904673614#12 904673614#13 904673614#14 904673614#15 904673614#16 904673614#19 25630213#0 25630213#1 25630213#3 25630213#4 25630213#7 25630213#8 25630213#9 400978930 400978929#1 400978929#5 400978929#6 400978929#8 400978929#13 400978929#18 400978929#19 27163017 725476477#1 725476477#2 725476477#3 23173788 476424897 559446505#1 559446505#2 559446505#3 400978913#2 400978913#4 400978913#5 400978914#1 400978914#2 400978914#4 400978914#6 400978914#8 400978914#9 400978914#10 400978914#11 400978914#12 420093222 419958542 23173789#0 23173789#1 23173789#3 23173789#4 23173789#5 23173789#6 23173789#7 23173789#10 23173789#11 23173789#12 23173789#13 23173789#14 23173789#16 23173789#17 23173789#19 105159760#0 105159760#1 105159760#3 105159760#4 105159760#6 105159760#7 -902777248#3 -902777248#2 -902777248#1 -902777248#0 -902777249#1 105159771#0 105159771#1 105159771#4 105159771#5"/>
    </vehicle>
    <vehicle id="c_44" type="c__passenger" depart="110.00">