<?xml version='1.0' encoding='utf-8'?>
<routes xmlns:xsi="http://www.w3.org/2001/XMLSchema-instance" xsi:noNamespaceSchemaLocation="http://sumo.dlr.de/xsd/routes_file.xsd">
  <vType id="cp_default__passenger" vClass="passenger" guiShape="passenger" />
  <vehicle id="cp_default_1" type="cp_default__passenger" depart="10.00">
    <route edges="288780408#2 288780408#3 288780408#4 -89562703#10 -89562703#9 -89562703#8 -89562703#6 -89562703#5 -89562703#4 -89562703#2 -89562703#0 41691164#6 41691164#7 41691164#8 41691157#0 41691157#2 41691157#3 476424900#0 476424900#1 476424900#2 476424899#0 476424899#1 476424899#2 476424899#4 476424899#5 476424899#8 476424899#9 476424899#10 878249329#0 878249329#1 878249329#2 878249329#3 878249329#4 878249329#6 878249329#7 878249329#9 878249329#11 41691152#0 41691152#1 41691152#2 41691152#3 41691152#6 41691152#7 41691152#10 41691152#11 41691152#12 41691152#13 -400978913#2 -400978913#1 -559446505#2 -559446505#1 -559446505#0 23961341 725476478#0 725476478#1 725476476 725476477#0 725476477#1 560408614 213545296#0 213545296#1 128252750#0 128252750#1 213545293 213545293.15 213545293.71 213545293.87 -128252750#1 -128252750#0 -213545296#1 -213545296#0 560408615 725476477#3 23173788 -80733949#1 -80733949#0 89562705#0 89562705#1 89562705#2 1428609378#1 1428609378#2 1428609378#4 -89562711#2 -89562711#1 -89562711#0 89562654#0 89562654#1 89562654#2 89562654#4 400978917#4 400978917#5 400978917#7 -25561499#34" />
    <stop parkingArea="pa_1" duration="1277" />
  </vehicle>
  <vehicle id="cp_default_3" type="cp_default__passenger" depart="30.00">
    <route edges="-105159774#2 -105159774#1 -105159774#0 -105159772#1 -105159772#0 902777248#0 902777248#1 902777248#2 902777248#3 -105159760#7 -105159760#6 -105159760#4 -105159760#3 -105159760#1 -105159760#0 -476424916#0 -23173789#17 -23173789#16 -23173789#14 -23173789#13 -23173789#12 -23173789#11 -23173789#10 -23173789#7 -23173789#6 -23173789#5 -23173789#4 -23173789#3 -23173789#1 -23173789#0 -419958542 -559492773 -400978914#12 -400978914#11 -400978914#10 -400978914#9 -400978914#8 -400978914#6 -400978914#4 -400978914#2 -400978914#1 -400978914#0 -400978913#4 -400978913#2 -400978913#1 -559446505#2 -559446505#1 -559446505#0 23961341 725476478#0 725476478#1 725476476 725476477#0 725476477#1 560408614 213545296#0 213545296#1 128252750#0 128252750#1 213545293 213545293.15 213545293.71 213545293.87 -128252750#1 -128252750#0 -213545296#1 -213545296#0 560408615 725476477#3 23173788 476424897 559446505#1 559446505#2 559446505#3 400978913#2 400978913#4 400978913#5 400978914#1 400978914#2 400978914#4 400978914#6 400978914#8 400978914#9 400978914#10 400978914#11 400978914#12 420093222 419958542 23173789#0 23173789#1 23173789#3 23173789#4 23173789#5 23173789#6 23173789#7 23173789#10 23173789#11 23173789#12 23173789#13 23173789#14 23173789#16 23173789#17 23173789#19 105159760#0 105159760#1 105159760#3 105159760#4 105159760#6 105159760#7 -902777248#3 -902777248#2 -902777248#1 -902777248#0 -902777249#1 105159771#0 105159771#1 105159771#4 105159771#5 105159771#8 105159771#9 105159771#11 105159771#12 105159771#13 105159771#15 105159771#16 105159771#17 105159771#19 105159771#20 105159771#21 105159771#23 105159771#24" />
  </vehicle>
  <vehicle id="cp_default_4" type="cp_default__passenger" depart="40.00">
    <route edges="-105159772#3 -105159772#1 -105159772#0 902777248#0 902777248#1 902777248#2 902777248#3 -105159760#7 -105159760#6 -105159760#4 -105159760#3 -105159760#1 -105159760#0 -476424916#0 -23173789#17 -23173789#16 -23173789#14 -23173789#13 -23173789#12 -23173789#11 -23173789#10 -23173789#7 -23173789#6 -23173789#5 -23173789#4 -23173789#3 -23173789#1 -23173789#0 -419958542 -559492773 -400978914#12 -400978914#11 -400978914#10 -400978914#9 -400978914#8 -400978914#6 -400978914#4 -400978914#2 -400978914#1 -400978914#0 -400978913#4 -400978913#2 -400978913#1 -559446505#2 -559446505#1 -559446505#0 23961341 725476478#0 725476478#1 725476476 725476477#0 725476477#1 560408614 213545296#0 213545296#1 128252750#0 128252750#1 213545293 213545293.15 213545293.71 213545293.87 -128252750#1 -128252750#0 -213545296#1 -213545296#0 560408615 725476477#3 30826955 725476478#0 23173787" />
    <stop parkingArea="pa_4" duration="948" />
  </vehicle>
  <vehicle id="cp_default_5" type="cp_default__passenger" depart="50.00">
    <route edges="105168427#24 105168427#26 105168427#28 105168427#30 -105168430#1 -105168430#0 -105168446#7 -105168446#6 -105168446#4 -105168446#2 -105168446#1 -105168446#0 -53505126 400978929#8 400978929#13 400978929#18 400978929#19 27163017 725476477#1 560408614 213545296#0 213545296#1 128252750#0 128252750#1 213545293 213545293.15 213545293.71 213545293.87 -128252750#1 -128252750#0 -213545296#1 -213545296#0 560408615 725476477#3 30826955 725476478#0 23173787 -23173785#2 -23173785#1 904673614#0 904673614#2 904673614#3 904673614#4 904673614#5 904673614#6 904673614#7 904673614#8 904673614#9 904673614#10 -25630216#13 -25630216#12 -25630216#11 -25630216#10 -25630216#8 -25630216#6 -25630216#5 -25630216#4 -25630216#3 -25630216#2 -25630216#1 -25630216#0 106550068#0 106550068#1 106550091 106550078#1 106550078#2" />
    <stop parkingArea="pa_0" duration="951" />
  </vehicle>
  <vehicle id="cp_default_6" type="cp_default__passenger" depart="60.00">
    <route edges="-41691147#13 -41691147#11 -41691147#10 -41691147#7 -41691147#4 -41691147#1 41691163#9 41691163#10 41691163#11 41691163#15 41691163#16 41691163#17 41691163#19 41691163#20 41691163#23 41691163#24 41691163#25 41691163#26 41691155#0 41691155#1 41691155#2 41691155#3 -78828534#14 -78828534#13 -78828534#11 -78828534#8 -78828534#7 -78828534#5 -78828534#4 -78828534#3 -78828534#2 -78828534#0 -78828539#12 -78828539#11 -78828539#9 -78828539#8 -78828539#6 -78828539#5 -78828539#2 -78828539#1 -78828539#0 878249329#0 878249329#1 878249329#2 878249329#3 878249329#4 878249329#6 878249329#7 878249329#9 878249329#11 41691152#0 41691152#1 41691152#2 41691152#3 41691152#6 41691152#7 41691152#10 41691152#11 41691152#12 41691152#13 -400978913#2 -400978913#1 -559446505#2 -559446505#1 -559446505#0 23961341 725476478#0 23173787 -23173785#2 -23173785#1 904673614#0 904673614#2 904673614#3 904673614#4 904673614#5 904673614#6 904673614#7 904673614#8 904673614#9 904673614#10 -25630216#13 -25630216#12 -25630216#11 -25630216#10 -25630216#8 -25630216#6 -25630216#5 -25630216#4 -25630216#3 -25630216#2 -25630216#1 -25630216#0 106550068#0 106550068#1 106550091 106550073 106550095#0 106550090#0 106550090#2 106550090#3 106550090#6 106550090#7 106550090#10 106550090#11 106550090#14 106550090#15 106550090#16 106550090#17 106550090#18 106550090#21 106550090#22 106550090#23 106550090#24 -106550090#24 -106550090#23 -106550090#22 -106550090#21 -106550090#18 -106550090#17 -106550090#16 -106550090#15 -106550090#14 -106550090#11 -106550090#10 -106550090#7 -106550090#6 -106550090#3 -106550090#2 -106550090#0 -106550095#0 -106550073 -106550091 -106550068#1 -106550068#0 25630216#0 25630216#1 25630216#2 25630216#3 25630216#4 25630216#5 25630216#6 25630216#8 25630216#10 25630216#11 25630216#12 25630216#13 -904673614#10 -904673614#9 -904673614#8 -904673614#7 -904673614#6 -904673614#5 -904673614#4 -904673614#3 -904673614#2 -904673614#0 960080894 23173785#2 23961342 725476476 725476477#0 725476477#1 725476477#2 725476477#3 23173788 476424897 559446505#1 559446505#2 559446505#3 400978913#2 -41691152#13 -41691152#12 -41691152#11 -41691152#10 -41691152#7 -41691152#6 -41691152#3 -41691152#2 -41691152#1 -41691152#0 -878249329#11 -878249329#9 -878249329#7 -878249329#6 -878249329#4 -878249329#3 -878249329#2 -878249329#1 -878249329#0 78828539#0 78828539#1 78828539#2 78828539#5 78828539#6 78828539#8 78828539#9 78828539#11 78828539#12 78828534#0 78828534#2 78828534#3 78828534#4 78828534#5 78828534#7 78828534#8 78828534#11 78828534#13 78828534#14 -41691155#3 -41691155#2 -41691155#1 -41691155#0 41691149#0 41691149#1" />
  </vehicle>
  <vehicle id="cp_default_7" type="cp_default__passenger" depart="70.00">
    <route edges="25583275#4 25583275#5 25583275#6 25583275#7 25583275#9 25583275#10 25583275#11 25583275#12 25583275#13 25583275#14 25583275#15 25583275#17 25583275#18 25583275#21 25583275#22 400978936#0 400978936#1 400978936#2 400978937#1 400978937#2 400978937#3 400978937#4 400978937#5 -559492773 -400978914#12 -400978914#11 -400978914#10 -400978914#9 -400978914#8 -400978914#6 -400978914#4 -400978914#2 -400978914#1 -400978914#0 -400978913#4 -400978913#2 -400978913#1 -559446505#2 -559446505#1 -559446505#0 23961341 725476478#0 725476478#1 725476476 725476477#0 725476477#1 560408614 213545296#0 213545296#1 128252750#0 128252750#1 213545293 213545293.15 213545293.71 213545293.87 -128252750#1 -128252750#0 -213545296#1 -213545296#0 560408615 725476477#3 23173788 476424897 559446505#1 559446505#2 559446505#3 400978913#2 400978913#4 400978913#5 400978914#1 400978914#2 400978914#4 400978914#6 400978914#8 400978914#9 400978914#10 400978914#11 400978914#12 420093222 419958542 23173789#0 23173789#1 23173789#3 23173789#4 23173789#5" />
  </vehicle>
  <vehicle id="cp_default_8" type="cp_default__passenger" depart="80.00">
    <route edges="89562661#6 89562661#8 89562661#9 89562661#10 89562661#11 89562661#12 89562661#14 89562661#16 89562661#17 89562661#18 89562661#19 89562661#20 -89562675#0 89562685 -89562705#2 -89562705#1 -89562705#0 80733949#0 80733949#1 23961341 725476478#0 725476478#1 725476476 725476477#0 725476477#1 560408614 213545296#0 213545296#1 128252750#0 128252750#1 213545293 213545293.15 213545293.71 213545293.87 -128252750#1 -128252750#0 -213545296#1 -213545296#0 560408615 725476477#3 23173788 476424897 559446505#1 559446505#2 559446505#3 400978913#2 400978913#4 400978913#5 400978914#1 400978914#2 400978914#4 400978914#6 400978914#8 400978914#9 400978914#10 400978914#11 288974405 288974450 -106545982#5 -106545982#4 -106545982#3 -106545982#2 -106545982#1 -106545982#0 106546024#0 106546024#1 106546024#2" />
    <stop parkingArea="pa_4" duration="1332" />
  </vehicle>
  <vehicle id="cp_default_9" type="cp_default__passenger" depart="90.00">
    <route edges="-106546033 106545970#0 106545970#1 106545970#2 106545970#4 106545970#5 106545970#6 106545970#7 106545970#8 106545970#9 106545970#10 106545970#12 106545970#14 106545960#1 106545960#2 106545960#3 106545960#5 106545960#6 106545960#7 106545960#9 106545960#10 106545960#11 106545982#0 106545982#1 106545982#2 106545982#3 106545982#4 106545982#5 -78832776#1 -78832776#0 -1136015477#1 -1136015477#0 -400978923#2 -400978923#0 -419958545#1 -419958545#0 -559492773 -400978914#12 -400978914#11 -400978914#10 -400978914#9 -400978914#8 -400978914#6 -400978914#4 -400978914#2 -400978914#1 -400978914#0 -400978913#4 -400978913#2 -400978913#1 -559446505#2 -559446505#1 -559446505#0 23961341 725476478#0 725476478#1 725476476 725476477#0 725476477#1 560408614 213545296#0 213545296#1 128252750#0 128252750#1 213545293 213545293.15 213545293.71 213545293.87 -128252750#1 -128252750#0 -213545296#1 -213545296#0 560408615 725476477#3 30826955 725476478#0 23173787 -23173785#2 -23173785#1 904673614#0 904673614#2 904673614#3 904673614#4 904673614#5 904673614#6 904673614#7 904673614#8 904673614#9 904673614#10 -25630216#13 -25630216#12 -25630216#11 -25630216#10 -25630216#8 -25630216#6 -25630216#5 -25630216#4 -25630216#3 -25630216#2 -25630216#1 -25630216#0 106550068#0 106550068#1 106550091 106550073 106550095#0 106550095#1" />
    <stop parkingArea="pa_2" duration="1788" />
  </vehicle>
  <vehicle id="cp_default_10" type="cp_default__passenger" depart="100.00">
    <route edges="-40989963#0 33189690#5 33189690#6 33189690#7 33189690#8 33189690#9 33189690#10 33189690#12 33189690#13 33189690#14 33189690#15 33189690#17 33189690#18 33189690#19 33189690#21 -40989444 476424892 400978919#1 89562680 376714130#0 376714130#1 376714130#2 89562653 476424900#0 476424900#1 476424900#2 476424899#0 476424899#1 476424899#2 476424899#4 476424899#5 476424899#8 476424899#9 476424899#10 878249329#0 878249329#1 878249329#2 878249329#3 878249329#4 878249329#6 878249329#7 878249329#9 878249329#11 41691152#0 41691152#1 41691152#2 41691152#3 41691152#6 41691152#7 41691152#10 41691152#11 41691152#12 41691152#13 -400978913#2 -400978913#1 -559446505#2 -559446505#1 -559446505#0 23961341 725476478#0 725476478#1 725476476 725476477#0 725476477#1 560408614 213545296#0 213545296#1 128252750#0 128252750#1 213545293 213545293.15 213545293.71 213545293.87 -128252750#1 -128252750#0 -213545296#1 -213545296#0 560408615 725476477#3 23173788 -80733949#1 -80733949#0 89562705#0 89562705#1 89562705#2 1428609378#1 1428609378#2 1428609378#4 -89562711#2 -89562711#1 -89562711#0 89562654#0 89562654#1 89562654#2 89562654#4 400978917#4 400978917#5 400978917#7 400978917#8 105232030#0 105232030#1 105232027#0 105232027#1 105232027#3 105232027#4 105232027#5 105232027#6 105232027#7 105232027#8 105232027#11 105232027#12" />
  </vehicle>
  <vehicle id="cp_default_11" type="cp_default__passenger" depart="110.00">
    <route edges="-89562703#23 -89562703#22 -89562703#21 -89562703#20 -89562703#17 -89562703#16 -89562703#13 -89562703#12 -89562703#10 -89562703#9 -89562703#8 -89562703#6 -89562703#5 -89562703#4 -89562703#2 -89562703#0 41691164#6 41691164#7 41691164#8 41691157#0 41691157#2 41691157#3 476424900#0 476424900#1 476424900#2 476424899#0 476424899#1 476424899#2 476424899#4 476424899#5 476424899#8 476424899#9 476424899#10 878249329#0 878249329#1 878249329#2 878249329#3 878249329#4 878249329#6 878249329#7 878249329#9 878249329#11 41691152#0 41691152#1 41691152#2 41691152#3 41691152#6 41691152#7 41691152#10 41691152#11 41691152#12 41691152#13 -400978913#2 -400978913#1 -559446505#2 -559446505#1 -559446505#0 23961341 725476478#0 725476478#1 725476476 725476477#0 725476477#1 560408614 213545296#0 213545296#1 128252750#0 128252750#1 213545293 213545293.15 213545293.71 213545293.87 -128252750#1 -128252750#0 -213545296#1 -213545296#0 560408615 725476477#3 23173788 -80733949#1 -80733949#0 89562705#0 89562705#1 89562705#2 1428609378#1 1428609378#2 1428609378#4 -89562711#2 -89562711#1 -89562711#0 89562654#0 89562654#1 89562654#2 89562654#4 -105232041#3 -105232041#2 -105232040#1" />
  </vehicle>
  <vehicle id="cp_default_12" type="cp_default__passenger" depart="120.00">
    <route edges="41691163#2 41691163#3 41691163#5 41691163#9 41691163#10 41691163#11 41691163#15 41691163#16 41691163#17 41691163#19 41691163#20 41691163#23 41691163#24 41691163#25 41691163#26 41691155#0 41691155#1 41691155#2 41691155#3 -78828534#14 -78828534#13 -78828534#11 -78828534#8 -78828534#7 -78828534#5 -78828534#4 -78828534#3 -78828534#2 -78828534#0 -78828539#12 -78828539#11 -78828539#9 -78828539#8 -78828539#6 -78828539#5 -78828539#2 -78828539#1 -78828539#0 878249329#0 878249329#1 878249329#2 878249329#3 878249329#4 878249329#6 878249329#7 878249329#9 878249329#11 41691152#0 41691152#1 41691152#2 41691152#3 41691152#6 41691152#7 41691152#10 41691152#11 41691152#12 41691152#13 -400978913#2 -400978913#1 -559446505#2 -559446505#1 -559446505#0 23961341 725476478#0 725476478#1 725476476 725476477#0 725476477#1 560408614 213545296#0 213545296#1 128252750#0 128252750#1 213545293 213545293.15 213545293.71 213545293.87 -128252750#1 -128252750#0 -213545296#1 -213545296#0 560408615 725476477#3 30826955 725476478#0 23173787 -23173785#2 -23173785#1 904673614#0 904673614#2 904673614#3 904673614#4 904673614#5 904673614#6 904673614#7 904673614#8 904673614#9 904673614#10 -25630216#13 -25630216#12 -25630216#11 -25630216#10 -25630216#8 -25630216#6 -25630216#5 -25630216#4 -25630216#3 -25630216#2 -25630216#1 -25630216#0 106550068#0 106550068#1 106550091 106550073 106550095#0 106550095#1 106550095#2 106550095#5 106550095#6 711802514#0 711802514#1 711802514#2 711802514#3 711802514#4 711802514#5 711802514#7 711802514#8 711802514#9 711802514#10 711802514#11 705955085#0 705955085#1" />
  </vehicle>
  <vehicle id="cp_default_13" type="cp_default__passenger" depart="130.00">
    <route edges="106545960#1 106545960#2 106545960#3 106545960#5 106545960#6 106545960#7 106545960#9 106545960#10 106545960#11 106545982#0 106545982#1 106545982#2 106545982#3 106545982#4 106545982#5 -78832776#1 -78832776#0 -1136015477#1 -1136015477#0 -400978923#2 -400978923#0 -419958545#1 -419958545#0 -559492773 -400978914#12 -400978914#11 -400978914#10 -400978914#9 -400978914#8 -400978914#6 -400978914#4 -400978914#2 -400978914#1 -400978914#0 -400978913#4 -400978913#2 -400978913#1 -559446505#2 -559446505#1 -559446505#0 23961341 725476478#0 725476478#1 725476476 725476477#0 725476477#1 560408614 213545296#0 213545296#1 128252750#0 128252750#1 213545293 213545293.15 213545293.71 213545293.87 -128252750#1 -128252750#0 -213545296#1 -213545296#0 560408615 725476477#3 30826955 725476478#0 725476478#1 725476476 27163042 -559446506 -400978929#18 -400978929#16 -400978929#12 53505126 105168446#0 105168446#1" />
    <stop parkingArea="pa_0" duration="653" />
  </vehicle>
  <vehicle id="cp_default_14" type="cp_default__passenger" depart="140.00">
    <route edges="-288794737#3 -288794737#2 -288794737#1 -904673614#10 -904673614#9 -904673614#8 -904673614#7 -904673614#6 -904673614#5 -904673614#4 -904673614#3 -904673614#2 -904673614#0 960080894 23173785#2 23961342 725476476 725476477#0 725476477#1 560408614 213545296#0 213545296#1 128252750#0 128252750#1 213545293 213545293.15 213545293.71 213545293.87 -128252750#1 -128252750#0 -213545296#1 -213545296#0 560408615 725476477#3 23173788 476424897 559446505#1 559446505#2 559446505#3 400978913#2 400978913#4 400978913#5 400978914#1 400978914#2 400978914#4 400978914#6 400978914#8 400978914#9 400978914#10 400978914#11 288974405 288974450 -106545982#5 -106545982#4 -106545982#3 -106545982#2 -106545982#1 -106545982#0 -106545960#11 -106545960#10 -106545960#9 -106545960#7 -106545960#6 -106545960#5 -106545960#3 -106545960#2 -106545960#1 -106545960#0 -106545970#12 -106545970#10" />
    <stop parkingArea="pa_3" duration="1390" />
  </vehicle>
  <vehicle id="cp_default_15" type="cp_default__passenger" depart="150.00">
    <route edges="-288839028#3 -288839028#1 -288839028#0 -106550073 -106550091 -106550068#1 -106550068#0 25630216#0 25630216#1 25630216#2 25630216#3 25630216#4 25630216#5 25630216#6 25630216#8 25630216#10 25630216#11 25630216#12 25630216#13 -904673614#10 -904673614#9 -904673614#8 -904673614#7 -904673614#6 -904673614#5 -904673614#4 -904673614#3 -904673614#2 -904673614#0 960080894 23173785#2 23961342 725476476 725476477#0 725476477#1 560408614 213545296#0 213545296#1 128252750#0 128252750#1 213545293 213545293.15 213545293.71 213545293.87 -128252750#1 -128252750#0 -213545296#1 -213545296#0 560408615 725476477#3 23173788 476424897 559446505#1 559446505#2 559446505#3 400978913#2 -41691152#13 -41691152#12 -41691152#11 -41691152#10 -41691152#7 -41691152#6 -41691152#3 -41691152#2 -41691152#1 -41691152#0 -878249329#11 -878249329#9 -878249329#7 -878249329#6 -878249329#4 -878249329#3 -878249329#2 -878249329#1 -878249329#0 -476424899#10 -476424899#9 -476424899#8 -476424899#5 -476424899#4 -476424899#2 -476424899#1 -476424899#0 -476424900#2 -476424900#1 -476424900#0 -89562653 -376714130#2 -376714130#1 -376714130#0 -878236050 -400978919#1 -400978919#0 40989444 -400978927#4 -400978927#3 -400978927#1 -400978927#0" />
  </vehicle>
  <vehicle id="cp_default_16" type="cp_default__passenger" depart="160.00">
    <route edges="1428541327 27163191#5 27163191#6 1428541328 -26921982#2 -400978920#2 -494611378 -494611373 494611369 746758929 494611386#0 494611386#1 494611386#2 560408571#0 560408571#1 960080894 23173785#2 23961342 725476476 725476477#0 725476477#1 560408614 213545296#0 213545296#1 128252750#0 128252750#1 213545293 213545293.15 213545293.71 213545293.87 -128252750#1 -128252750#0 -213545296#1 -213545296#0 560408615 725476477#3 23173788 476424897 559446505#1 559446505#2 559446505#3 400978913#2 -41691152#13 -41691152#12 -41691152#11 -41691152#10 -41691152#7 -41691152#6 -41691152#3 -41691152#2 -41691152#1 -41691152#0 -878249329#11 -878249329#9 -878249329#7 -878249329#6 -878249329#4 -878249329#3 -878249329#2 -878249329#1 -878249329#0 78828539#0 78828539#1 78828539#2 78828539#5 78828539#6 78828539#8 78828539#9 78828539#11 78828539#12 78828534#0 78828534#2 78828534#3 78828534#4 78828534#5 78828534#7" />
    <stop parkingArea="pa_4" duration="1761" />
  </vehicle>
  <vehicle id="cp_default_17" type="cp_default__passenger" depart="170.00">
    <route edges="-25630216#8 -25630216#6 -25630216#5 -25630216#4 -25630216#3 -25630216#2 -25630216#1 -25630216#0 -25630215#3 -25630215#2 -25630215#1 25630529#0 25630529#1 25630529#2 25630529#3 25630529#6 25630529#7 25630529#10 25630529#11 25630529#12 25630529#13 25630529#14 25630529#17 25630529#18 25630529#19 25630529#20 25630529#21 25630529#23 25630529#24 25630529#25 288794788#1 -904673614#0 960080894 23173785#2 23961342 725476476 725476477#0 725476477#1 560408614 213545296#0 213545296#1 128252750#0 128252750#1 213545293 213545293.15 213545293.71 213545293.87 -128252750#1 -128252750#0 -213545296#1 -213545296#0 560408615 725476477#3 30826955 725476478#0 725476478#1 725476476 27163042 -559446506 -400978929#18 -400978929#16 -400978929#12 -400978929#6 89562655#0 89562655#1 89562655#2" />
    <stop parkingArea="pa_0" duration="695" />
  </vehicle>
  <vehicle id="cp_default_18" type="cp_default__passenger" depart="180.00">
    <route edges="213545296#1 128252750#0 128252750#1 213545293 213545293.15 213545293.71 213545293.87 -128252750#1 -128252750#0 -213545296#1 -213545296#0 560408615 725476477#3 23173788 -80733949#1 -80733949#0 89562705#0 89562705#1 89562705#2 1428609378#1 1428609378#2 1428609378#4 -89562711#2 -89562711#1 -89562711#0 89562654#0 89562654#1 89562654#2 89562654#4 400978917#4 400978917#5 400978917#7 -25561499#34 -25561499#33 -25561499#31 -25561499#30 -25561499#29 -25561499#28 -25561499#27 -25561499#26 -25561499#25 -25561499#24" />
  </vehicle>
  <vehicle id="cp_default_19" type="cp_default__passenger" depart="190.00">
    <route edges="-288794737#4 -288794737#3 -288794737#2 -288794737#1 -904673614#10 -904673614#9 -904673614#8 -904673614#7 -904673614#6 -904673614#5 -904673614#4 -904673614#3 -904673614#2 -904673614#0 960080894 23173785#2 23961342 725476476 725476477#0 725476477#1 560408614 213545296#0 213545296#1 128252750#0 128252750#1 213545293 213545293.15 213545293.71 213545293.87 -128252750#1 -128252750#0 -213545296#1 -213545296#0 560408615 725476477#3 23173788 476424897 559446505#1 559446505#2 559446505#3 400978913#2 400978913#4 400978913#5 400978914#1 400978914#2 400978914#4 400978914#6 400978914#8 400978914#9 400978914#10 400978914#11 400978914#12 420093222 -400978937#5 -400978937#4 -400978937#3 -400978937#2 -400978937#1 -400978940#1 -400978940#0 -78828539#30" />
  </vehicle>
  <vehicle id="cp_default_20" type="cp_default__passenger" depart="200.00">
    <route edges="902777249#1 902777248#0 902777248#1 902777248#2 902777248#3 -105159760#7 -105159760#6 -105159760#4 -105159760#3 -105159760#1 -105159760#0 -476424916#0 -23173789#17 -23173789#16 -23173789#14 -23173789#13 -23173789#12 -23173789#11 -23173789#10 -23173789#7 -23173789#6 -23173789#5 -23173789#4 -23173789#3 -23173789#1 -23173789#0 -419958542 -559492773 -400978914#12 -400978914#11 -400978914#10 -400978914#9 -400978914#8 -400978914#6 -400978914#4 -400978914#2 -400978914#1 -400978914#0 -400978913#4 -400978913#2 -400978913#1 -559446505#2 -559446505#1 -559446505#0 23961341 725476478#0 725476478#1 725476476 725476477#0 725476477#1 560408614 213545296#0 213545296#1 128252750#0 128252750#1 213545293 213545293.15 213545293.71 213545293.87 -128252750#1 -128252750#0 -213545296#1 -213545296#0 560408615 725476477#3 23173788 -80733949#1 -80733949#0 89562705#0 89562705#1 89562705#2 1428609378#1 1428609378#2 1428609378#4 -89562711#2 -89562711#1 -89562711#0 89562654#0 89562654#1 89562654#2 89562654#4 400978917#4 400978917#5 400978917#7 400978917#8 105232030#0 105232030#1 105232027#0 105232027#1 105232045#0 105232045#1 105232045#4 105232045#5 105232045#6 105232045#7" />
  </vehicle>
  <vehicle id="cp_default_21" type="cp_default__passenger" depart="210.00">
    <route edges="25561499#29 25561499#30 25561499#31 25561499#33 25561499#34 -400978917#7 -400978917#5 105232041#3 -89562654#4 -89562654#2 -89562654#1 -89562654#0 89562711#0 89562711#1 89562711#2 -1428609378#4 -1428609378#2 -1428609378#1 -89562705#2 -89562705#1 -89562705#0 80733949#0 80733949#1 23961341 725476478#0 725476478#1 725476476 725476477#0 725476477#1 560408614 213545296#0 213545296#1 128252750#0 128252750#1 213545293 213545293.15 213545293.71 213545293.87 -128252750#1 -128252750#0 -213545296#1 -213545296#0 560408615 725476477#3 23173788 -80733949#1 -80733949#0 89562705#0 89562705#1 89562705#2 1428609378#1 1428609378#2 1428609378#4 -89562711#2 -89562711#1 -89562711#0 89562654#0 89562654#1 89562654#2 89562654#4 400978917#4 400978917#5 400978917#7 400978917#8 400978917#9" />
  </vehicle>
  <vehicle id="cp_default_22" type="cp_default__passenger" depart="220.00">
    <route edges="-288794737#6 -288794737#4 -288794737#3 -288794737#2 -288794737#1 904673614#11 904673614#12 904673614#13 904673614#14 904673614#15 904673614#16 904673614#19 25630213#0 25630213#1 25630213#3 25630213#4 25630213#7 25630213#8 25630213#9 400978930 400978929#1 400978929#5 400978929#6 53505126 105168427#0 105168427#2 105168427#6 105168427#9 105168427#10 105168427#13 105168427#14 105168427#16 105168427#17 105168427#18 105168427#21 105168427#22 105168427#23 105168427#24 105168427#26 105168427#28 105168427#30 -105168430#1 -105168430#0 -105168446#7 -105168446#6 -105168446#4 -105168446#2 -105168446#1 -105168446#0 -53505126 400978929#8 400978929#13 400978929#18 400978929#19 27163017 725476477#1 725476477#2 725476477#3 23173788 476424897 559446505#1 559446505#2 559446505#3 400978913#2 -41691152#13 -41691152#12 -41691152#11 -41691152#10 -41691152#7 -41691152#6 -41691152#3 -41691152#2 -41691152#1 -41691152#0 -878249329#11 -878249329#9 -878249329#7 -878249329#6 -878249329#4 -878249329#3 -878249329#2 -878249329#1 -878249329#0 78828539#0 78828539#1 78828539#2 78828539#5 78828539#6 78828539#8 78828539#9 78828539#11 78828539#12 78828534#0 78828534#2 78828534#3 78828534#4 78828534#5 78828534#7 78828534#8 78828534#11 78828534#13 78828534#14 -41691155#3 -41691155#2 -41691155#1 -41691155#0 -41691163#26 -41691163#25 -41691163#24 -41691163#23 -41691163#20 -41691163#19 -41691163#17 -41691163#16 -41691163#15 -41691163#11" />
    <stop parkingArea="pa_3" duration="1023" />
  </vehicle>
  <vehicle id="cp_default_23" type="cp_default__passenger" depart="230.00">
    <route edges="-376718512#0 -41691155#8 -41691155#6 -41691155#5 -78828534#14 -78828534#13 -78828534#11 -78828534#8 -78828534#7 -78828534#5 -78828534#4 -78828534#3 -78828534#2 -78828534#0 -78828539#12 -78828539#11 -78828539#9 -78828539#8 -78828539#6 -78828539#5 -78828539#2 -78828539#1 -78828539#0 878249329#0 878249329#1 878249329#2 878249329#3 878249329#4 878249329#6 878249329#7 878249329#9 878249329#11 41691152#0 41691152#1 41691152#2 41691152#3 41691152#6 41691152#7 41691152#10 41691152#11 41691152#12 41691152#13 -400978913#2 -400978913#1 -559446505#2 -559446505#1 -559446505#0 23961341 725476478#0 725476478#1 725476476 725476477#0 725476477#1 560408614 213545296#0 213545296#1 128252750#0 128252750#1 213545293 213545293.15 213545293.71 213545293.87 -128252750#1 -128252750#0 -213545296#1 -213545296#0 560408615 725476477#3 30826955 725476478#0 23173787 -23173785#2 -23173785#1 904673614#0 560408569#0 560408569#1 560408569#2 89562658#0 89562658#1 89562658#4 89562658#5 89562658#8 89562658#9 89562658#10 89562658#11 89562658#12 89562658#14 89562658#15 89562658#16" />
    <stop parkingArea="pa_3" duration="699" />
  </vehicle>
  <vehicle id="cp_default_24" type="cp_default__passenger" depart="240.00">
    <route edges="715093627#1 400978930 400978929#1 400978929#5 400978929#6 400978929#8 400978929#13 400978929#18 400978929#19 27163017 725476477#1 560408614 213545296#0 213545296#1 128252750#0 128252750#1 213545293 213545293.15 213545293.71 213545293.87 -128252750#1 -128252750#0 -213545296#1 -213545296#0 560408615 725476477#3 23173788 476424897 559446505#1 559446505#2 559446505#3 400978913#2 400978913#4 400978913#5 400978914#1 400978914#2 400978914#4 400978914#6 400978914#8 400978914#9 400978914#10 400978914#11 400978914#12 420093222 419958542 23173789#0 23173789#1 23173789#3 23173789#4 23173789#5 23173789#6 23173789#7 23173789#10 23173789#11 23173789#12 23173789#13 23173789#14 23173789#16 23173789#17 23173789#19" />
  </vehicle>
  <vehicle id="cp_default_25" type="cp_default__passenger" depart="250.00">
    <route edges="78828544#1 78828544#2 78828544#5 78828544#6 78828544#7 78828544#8 -78828551#4 -78828551#3 -78828551#2 -78828551#1 -78828551#0 -78828552#15 -78828552#14 -78828552#13 -78828552#12 -78828552#10 -78828552#7 -78828552#4 -78828552#3 -78828552#2 -400978914#9 -400978914#8 -400978914#6 -400978914#4 -400978914#2 -400978914#1 -400978914#0 -400978913#4 -400978913#2 -400978913#1 -559446505#2 -559446505#1 -559446505#0 23961341 725476478#0 725476478#1 725476476 725476477#0 725476477#1 560408614 213545296#0 213545296#1 128252750#0 128252750#1 213545293 213545293.15 213545293.71 213545293.87 -128252750#1 -128252750#0 -213545296#1 -213545296#0 560408615 725476477#3 23173788 476424897 559446505#1 559446505#2 559446505#3 400978913#2 -41691152#13 -41691152#12 -41691152#11 -41691152#10 -41691152#7 -41691152#6 -41691152#3 -41691152#2 -41691152#1 -41691152#0 -878249329#11 -878249329#9 -878249329#7 -878249329#6 -878249329#4 -878249329#3 -878249329#2 -878249329#1 -878249329#0 -476424899#10 -476424899#9 -476424899#8 -476424899#5 -476424899#4 -476424899#2 -476424899#1 -476424899#0 -476424900#2 -476424900#1 -476424900#0 -41691157#3 -41691157#2 -41691157#0 41691164#9 41691164#10 41691164#11 41691164#1 41691164#2 41691164#3 41691164#4 41691164#5 89562703#0 89562703#2 89562703#4 89562703#5 89562703#6 89562703#8 89562703#9 89562703#10 89562703#12 89562703#13 89562703#16 89562703#17 89562703#20 89562703#21 89562703#22 89562703#23 89562703#24 89562703#26" />
  </vehicle>