<?xml version="1.0" encoding="UTF-8"?>

<!-- generated on 2026-02-11T00:54:17.607556+00:00 by Eclipse SUMO duarouter 1.25.0
<duarouterConfiguration xmlns:xsi="http://www.w3.org/2001/XMLSchema-instance" xsi:noNamespaceSchemaLocation="http://sumo.dlr.de/xsd/duarouterConfiguration.xsd">

    <input>
        <net-file value="osm.net.xml"/>
        <route-files value="trips/carQuiet.trips.xml,trips/busQuiet.trips.xml,trips/truckQuiet.trips.xml"/>
    </input>

    <output>
        <output-file value="routes/quiet.rou.xml"/>
    </output>

    <processing>
        <remove-loops value="true"/>
    </processing>

    <report>
        <ignore-errors value="true"/>
    </report>

</duarouterConfiguration>
-->

<routes xmlns:xsi="http://www.w3.org/2001/XMLSchema-instance" xsi:noNamespaceSchemaLocation="http://sumo.dlr.de/xsd/routes_file.xsd">
    <vType id="c__passenger" vClass="passenger" guiShape="passenger"/>
    <vehicle id="c_1" type="c__passenger" depart="3.00">
        <route edges="-400978914#2 -400978914#1 -400978914#0 -400978913#4 -400978913#2 -400978913#1 -559446505#2 -559446505#1 -559446505#0 23961341 725476478#0 23173787 -23173785#2 -23173785#1 904673614#0 904673614#2 904673614#3 904673614#4 904673614#5 904673614#6 904673614#7 904673614#8 904673614#9 904673614#10 -25630216#13 -25630216#12 -25630216#11 -25630216#10 -25630216#8 -25630216#6 -25630216#5 -25630216#4 -25630216#3 -25630216#2 -25630216#1 -25630216#0 106550068#0 106550068#1 106550091 106550073 288839028#0 288839028#1 288839028#3 288839028#5 288839028#6 288839028#8"/>
    </vehicle>
    <vehicle id="c_2" type="c__passenger" depart="6.00">
        <route edges="288974405 288974450 -78832776#1 -78832776#0 -1136015477#1 -1136015477#0 -400978923#2 -400978923#0 -419958545#1 -419958545#0 -400978937#5 -400978937#4 -400978937#3 -400978937#2 -400978937#1 -400978936#2 -400978936#1 -400978936#0 -25583275#22 -25583275#21 -25583275#18 -25583275#17 -25583275#15 -25583275#14 -25583275#13 -25583275#12 -25583275#11 -25583275#10 -25583275#9 -25583275#7 -25583275#6 -25583275#5 -25583275#4 -25583275#3 -25583275#2 -25583275#1 -25583275#0 -476424891#9 -476424891#8 -476424891#7 -476424891#6 -476424891#4 -476424891#3 -476424891#0 -476424902 -400978919#1 -400978919#0 -400978922#3 -400978922#0 -400978918#0 -400978917#9 -400978917#8 -25561499#34"/>
    </vehicle>
    <vehicle id="c_3" type="c__passenger" depart="9.00">
        <route edges="78828539#22 78828539#23 78828539#24 78828539#25 78828539#26 78828539#28 78828539#30 400978940#0 400978940#1 400978937#1 400978937#2 400978937#3 400978937#4 400978937#5 419958545#0 419958545#1 400978923#0 400978923#2 400978923#3 1136015477#1 78832776#0 78832776#1 -106545982#5"/>
    </vehicle>
    <vehicle id="c_4" type="c__passenger" depart="12.00">
        <route edges="-878571563 89562653 476424900#0 476424900#1 476424900#2 476424899#0 476424899#1 476424899#2 476424899#4 476424899#5 476424899#8 476424899#9 476424899#10 78828539#0 78828539#1 78828539#2 78828539#5 78828539#6 78828539#8 78828539#9 78828539#11 78828539#12 78828539#14 78828539#15 78828539#16 78828539#19 78828539#20 78828539#21 78828539#22 78828539#23 78828539#24 78828539#25 78828539#26 78828539#28 78828539#30 400978940#0 400978940#1 400978937#1 400978937#2 400978937#3 400978937#4 400978937#5 419958542 23173789#0 23173789#1 23173789#3 23173789#4 23173789#5 23173789#6 23173789#7 23173789#10 23173789#11 23173789#12 23173789#13 23173789#14 23173789#16 23173789#17 23173789#19 105159760#0 105159760#1 105159760#3 105159760#4 105159760#6 105159760#7 -902777248#3 -902777248#2 -902777248#1 -902777248#0 105159772#0 105159772#1 105159774#0 105159774#1 105159774#2 105159774#3"/>
    </vehicle>
    <vehicle id="c_5" type="c__passenger" depart="15.00">
        <route edges="25630529#24 25630529#25 288794788#1 -904673614#0 960080894 23173785#2 23961342 725476476 725476477#0 725476477#1 725476477#2 725476477#3 23173788 476424897 559446505#1 559446505#2 559446505#3 400978913#2 400978913#4 400978913#5 400978914#1 400978914#2 400978914#4 400978914#6 400978914#8 400978914#9 400978914#10 400978914#11 400978914#12 420093222 419958542 23173789#0 23173789#1 23173789#3 23173789#4 23173789#5 23173789#6 23173789#7 23173789#10 23173789#11 23173789#12 23173789#13 23173789#14 23173789#16 23173789#17 23173789#19 105159760#0 105159760#1 105159760#3 105159760#4 105159760#6 105159760#7 -902777248#3 -902777248#2 -902777248#1 -902777248#0 -902777249#1 105159771#0 105159771#1 105159771#4 105159771#5 105159771#8 105159771#9 105159771#11 105159771#12 105159771#13 105159771#15 105159771#16 105159771#17 105159771#19 105159771#20 105159771#21 105159771#23 105159771#24"/>
    </vehicle>
    <vehicle id="c_6" type="c__passenger" depart="18.00">
        <route edges="-105159772#3 -105159772#1 -105159772#0 902777248#0 902777248#1 902777248#2 902777248#3 -105159760#7 -105159760#6 -105159760#4 -105159760#3 -105159760#1 -105159760#0 -476424916#0 -23173789#17 -23173789#16 -23173789#14 -23173789#13 -23173789#12 -23173789#11 -23173789#10 -23173789#7 -23173789#6 -23173789#5 -23173789#4 -23173789#3 -23173789#1 -23173789#0 -419958542 -559492773 -400978914#12 -400978914#11 -400978914#10 -400978914#9 -400978914#8 -400978914#6 -400978914#4 -400978914#2 -400978914#1 -400978914#0 -400978913#4 -400978913#2 -400978913#1 -559446505#2 -559446505#1 -559446505#0 23961341 725476478#0 23173787 -23173785#2 -23173785#1 904673614#0 904673614#2 904673614#3 904673614#4 904673614#5 904673614#6 904673614#7 904673614#8 904673614#9 904673614#10 -25630216#13 -25630216#12 -25630216#11 -25630216#10 -25630216#8 -25630216#6 -25630216#5 -25630216#4 -25630216#3 -25630216#2"/>
    </vehicle>
    <vehicle id="c_7" type="c__passenger" depart="21.00">
        <route edges="-213545296#2 -213545296#1 -213545296#0 560408615 725476477#3 23173788 -80733949#1 -80733949#0 89562705#0 89562705#1 89562705#2 1428609378#1 1428609378#2 1428609378#4 -89562711#2 -89562711#1 -89562711#0 89562654#0 89562654#1 89562654#2 89562654#4 400978917#4 400978917#5 400978917#7 400978917#8 105232030#0 105232030#1 105232030#2"/>
    </vehicle>
    <vehicle id="c_8" type="c__passenger" depart="24.00">
        <route edges="-25630529#7 -25630529#6 -25630529#3 -25630529#2 -25630529#1 -25630529#0 25630215#1 25630215#2 25630215#3 106550068#0 106550068#1 106550091 106550078#1 106550078#2"/>
    </vehicle>
    <vehicle id="c_9" type="c__passenger" depart="27.00">
        <route edges="-41691147#13 -41691147#11 -41691147#10 -41691147#7 -41691147#4 -41691147#1 -41691163#5 -41691163#3 -41691163#2 -41691163#0 25583275#5 25583275#6 25583275#7 25583275#9 25583275#10 25583275#11 25583275#12 25583275#13 25583275#14 25583275#15 25583275#17 25583275#18 25583275#21 25583275#22 400978936#0 400978936#1 400978936#2 400978937#1 400978937#2 400978937#3 400978937#4 400978937#5 419958542 23173789#0 23173789#1 23173789#3 23173789#4 23173789#5 23173789#6 23173789#7 23173789#10 23173789#11 23173789#12 23173789#13 23173789#14 23173789#16 23173789#17 23173789#19 105159760#0 105159760#1 105159760#3"/>
    </vehicle>
    <vType id="b__bus" vClass="bus" guiShape="bus"/>
    <vehicle id="b_1" type="b__bus" depart="30.00">
        <route edges="-400978914#2 -400978914#1 -400978914#0 -400978913#4 -400978913#2 -400978913#1 -559446505#2 -559446505#1 -559446505#0 23961341 725476478#0 23173787 -23173785#2 -23173785#1 904673614#0 904673614#2 904673614#3 904673614#4 904673614#5 904673614#6 904673614#7 904673614#8 904673614#9 904673614#10 -25630216#13 -25630216#12 -25630216#11 -25630216#10 -25630216#8 -25630216#6 -25630216#5 -25630216#4 -25630216#3 -25630216#2 -25630216#1 -25630216#0 106550068#0 106550068#1 106550091 106550073 288839028#0 288839028#1 288839028#3 288839028#5 288839028#6 288839028#8"/>
    </vehicle>
    <vType id="t__truck" vClass="truck" guiShape="truck"/>
    <vehicle id="t_1" type="t__truck" depart="30.00">
        <route edges="-400978914#2 -400978914#1 -400978914#0 -400978913#4 -400978913#2 -400978913#1 -559446505#2 -559446505#1 -559446505#0 23961341 725476478#0 23173787 -23173785#2 -23173785#1 904673614#0 904673614#2 904673614#3 904673614#4 904673614#5 904673614#6 904673614#7 904673614#8 904673614#9 904673614#10 -25630216#13 -25630216#12 -25630216#11 -25630216#10 -25630216#8 -25630216#6 -25630216#5 -25630216#4 -25630216#3 -25630216#2 -25630216#1 -25630216#0 106550068#0 106550068#1 106550091 106550073 288839028#0 288839028#1 288839028#3 288839028#5 288839028#6 288839028#8"/>
    </vehicle>
    <vehicle id="c_10" type="c__passenger" depart="30.00">
        <route edges="-40989954#3 -40989954#1 -40989954#0 -40989953#2 -40989953#1 -40989953#0 33189690#19 33189690#21 -40989444 -400978922#3 -400978922#0 -400978918#0 -400978917#9 -400978917#8 -400978917#7 -400978917#5 -400978917#4 -400978917#3 -400978917#2 -400978917#1 -400978920#2 -494611378 -494611373 494611369 746758929 -725476479#1 494758078 25561514#0 25561514#1 25561514#2 25561514#3 25630214 25630215#0 25630215#1 25630215#2 25630215#3 25630216#0 25630216#1 25630216#2 25630216#3 25630216#4 25630216#5 25630216#6 25630216#8 25630216#10"/>
    </vehicle>
    <vehicle id="c_11" type="c__passenger" depart="33.00">
        <route edges="-476424898#2 -476424898#1 -476424898#0 41691152#6 41691152#7 41691152#10 41691152#11 41691152#12 41691152#13 400978913#4 400978913#5 400978914#1 400978914#2 400978914#4 400978914#6 400978914#8 400978914#9 400978914#10 400978914#11 400978914#12 420093222 419958542 23173789#0 23173789#1 23173789#3 23173789#4 23173789#5"/>
    </vehicle>
    <vehicle id="c_12" type="c__passenger" depart="36.00">
        <route edges="89562661#6 89562661#8 89562661#9 89562661#10 89562661#11 89562661#12 89562661#14 89562661#16 89562661#17 89562661#18 89562661#19 89562661#20 -89562675#0 -878571563 89562653 476424900#0 476424900#1"/>
    </vehicle>
    <vehicle id="c_13" type="c__passenger" depart="39.00">
        <route edges="-106546019#6 -106546019#5 -106546019#1 -106546019#0 -106546023 288974406#1 288974406#2"/>
    </vehicle>
    <vehicle id="c_14" type="c__passenger" depart="42.00">
        <route edges="476424899#2 476424899#4 476424899#5 476424899#8 476424899#9 476424899#10 878249329#0 878249329#1 878249329#2 878249329#3 878249329#4 878249329#6 878249329#7 878249329#9 878249329#11 41691152#0 41691152#1 41691152#2 41691152#3 41691152#6 41691152#7 41691152#10 41691152#11 41691152#12 41691152#13 -400978913#2 -400978913#1 -559446505#2 -559446505#1 -559446505#0 23961341 725476478#0 23173787 -23173785#2 -23173785#1 904673614#0 904673614#2 904673614#3 904673614#4 904673614#5 904673614#6 904673614#7 904673614#8 904673614#9 904673614#10 -25630216#13 -25630216#12 -25630216#11 -25630216#10 -25630216#8 -25630216#6 -25630216#5 -25630216#4 -25630216#3 -25630216#2 -25630216#1 -25630216#0 106550068#0 106550068#1 106550091 106550073 106550095#0 106550095#1"/>
    </vehicle>
    <vehicle id="c_15" type="c__passenger" depart="45.00">
        <route edges="-40989963#0 33189690#5 33189690#6 33189690#7 33189690#8 33189690#9 33189690#10 33189690#12 33189690#13 33189690#14 33189690#15 33189690#17 33189690#18 33189690#19 33189690#21 -400978927#4 -400978927#3 -400978927#1 -400978927#0 -33189593#2 -33189593#1 -33189593#0 -400978926#0 33189770 25583275#0 25583275#1 25583275#2 25583275#3 25583275#4 25583275#5 25583275#6 25583275#7 25583275#9 25583275#10 25583275#11 25583275#12 25583275#13 25583275#14 25583275#15 25583275#17 25583275#18 25583275#21 25583275#22 400978936#0 400978936#1 400978936#2 400978937#1 400978937#2 400978937#3 400978937#4 400978937#5 419958545#0 419958545#1 400978923#0 400978923#2 400978923#3 1136015477#1 78832776#0 -288974406#6 -288974406#5 -288974406#4 -288974406#3 -106546085"/>
    </vehicle>
    <vehicle id="c_16" type="c__passenger" depart="48.00">
        <route edges="105168401#0 105168401#1 105168401#3 105168401#4 105168401#5 105168401#6 105168401#7 -105168427#28 -105168427#26 -105168427#24 -105168427#23 -105168427#22 -105168427#21 -105168427#18 -105168427#17 -105168427#16 -105168427#14 -105168427#13 -105168427#10 -105168427#9 -105168427#6 -105168427#2 -105168427#0 -53505126 400978929#8 400978929#13 400978929#18 400978929#19 27163017 725476477#1 725476477#2 725476477#3 23173788 476424897 559446505#1 559446505#2 559446505#3 400978913#2 -41691152#13 -41691152#12 -41691152#11 -41691152#10 -41691152#7 -41691152#6 -41691152#3 -41691152#2 -41691152#1 -41691152#0 -878249329#11 -878249329#9 -878249329#7 -878249329#6 -878249329#4 -878249329#3 -878249329#2 -878249329#1 -878249329#0 -476424899#10 -476424899#9 -476424899#8 -476424899#5 -476424899#4 -476424899#2 -476424899#1 -476424899#0 -476424900#2 -476424900#1 -476424900#0 -41691157#3 -41691157#2 -41691157#0 41691164#9 41691164#10 41691164#11 41691164#1 41691164#2 41691164#3 41691164#4 41691164#5 89562703#0 89562703#2 89562703#4 89562703#5 89562703#6 89562703#8 89562703#9 89562703#10 89562703#12 89562703#13 89562703#16 89562703#17 89562703#20 89562703#21 89562703#22 89562703#23 89562703#24 89562703#26"/>
    </vehicle>
    <vehicle id="c_17" type="c__passenger" depart="51.00">
        <route edges="-78828534#0 -78828539#12 -78828539#11 -78828539#9 -78828539#8 -78828539#6 -78828539#5 -78828539#2 -78828539#1 -78828539#0 -476424899#10 -476424899#9 -476424899#8 -476424899#5 -476424899#4 -476424899#2 -476424899#1 -476424899#0 -476424900#2 -476424900#1 -476424900#0 -89562653 878571563 376714133#0 376714133#1 376714133#2 376714133#3 376714133#4 376714133#5 89562654#0 89562654#1 89562654#2 89562654#4 -105232041#3 -105232041#2 -105232040#1"/>
    </vehicle>
    <vehicle id="c_18" type="c__passenger" depart="54.00">
        <route edges="41691163#2 41691163#3 41691163#5 41691163#9 41691163#10 41691163#11 41691163#15 41691163#16 41691163#17 41691163#19 41691163#20 41691163#23 41691163#24 41691163#25 41691163#26 41691155#0 41691155#1 41691155#2 41691155#3 -78828534#14 -78828534#13 -78828534#11 -78828534#8 -78828534#7 -78828534#5 -78828534#4 -78828534#3 -78828534#2 -78828534#0 -78828539#12 -78828539#11 -78828539#9 -78828539#8 -78828539#6 -78828539#5 -78828539#2 -78828539#1 -78828539#0 878249329#0 878249329#1 878249329#2 878249329#3 878249329#4 878249329#6 878249329#7 878249329#9 878249329#11 41691152#0 41691152#1 41691152#2 41691152#3 41691152#6 41691152#7 41691152#10 41691152#11 41691152#12 41691152#13 -400978913#2 -400978913#1 -559446505#2 -559446505#1 -559446505#0 23961341 725476478#0 725476478#1 725476476 27163042 -559446506 -400978929#18 -213545296#12 -213545296#10 -213545296#9 1416317269#0 1416317269#1"/>
    </vehicle>
    <vehicle id="c_19" type="c__passenger" depart="57.00">
        <route edges="559446505#1 559446505#2 559446505#3 400978913#2 400978913#4 400978913#5 400978914#1 400978914#2 400978914#4 400978914#6 400978914#8 400978914#9 400978914#10 400978914#11 288974405 288974450 -106545982#5 -106545982#4 -106545982#3 -106545982#2 -106545982#1 -106545982#0 106546024#0 106546024#1 106546024#2 106546024#4 106546024#5 106546019#0 106546019#1"/>
    </vehicle>
    <vehicle id="c_20" type="c__passenger" depart="60.00">
        <route edges="25630215#0 25630215#1 25630215#2 25630215#3 25630216#0 25630216#1 25630216#2 25630216#3 25630216#4 25630216#5 25630216#6 25630216#8 25630216#10 25630216#11 25630216#12 25630216#13 904673614#11 904673614#12 904673614#13 904673614#14 904673614#15 904673614#16 904673614#19 25630213#0 25630213#1 25630213#3 25630213#4 25630213#7 25630213#8 25630213#9 400978930 400978929#1 400978929#5 400978929#6 53505126 105168446#0 105168446#1"/>
    </vehicle>
    <vehicle id="b_2" type="b__bus" depart="60.00">
        <route edges="288974405 288974450 -78832776#1 -78832776#0 -1136015477#1 -1136015477#0 -400978923#2 -400978923#0 -419958545#1 -419958545#0 -400978937#5 -400978937#4 -400978937#3 -400978937#2 -400978937#1 -400978936#2 -400978936#1 -400978936#0 -25583275#22 -25583275#21 -25583275#18 -25583275#17 -25583275#15 -25583275#14 -25583275#13 -25583275#12 -25583275#11 -25583275#10 -25583275#9 -25583275#7 -25583275#6 -25583275#5 -25583275#4 -25583275#3 -25583275#2 -25583275#1 -25583275#0 -476424891#9 -476424891#8 -476424891#7 -476424891#6 -476424891#4 -476424891#3 -476424891#0 -476424902 -400978919#1 -400978919#0 -400978922#3 -400978922#0 -400978918#0 -400978917#9 -400978917#8 -25561499#34"/>
    </vehicle>
    <vehicle id="t_2" type="t__truck" depart="60.00">
        <route edges="288974405 288974450 -78832776#1 -78832776#0 -1136015477#1 -1136015477#0 -400978923#2 -400978923#0 -419958545#1 -419958545#0 -400978937#5 -400978937#4 -400978937#3 -400978937#2 -400978937#1 -400978936#2 -400978936#1 -400978936#0 -25583275#22 -25583275#21 -25583275#18 -25583275#17 -25583275#15 -25583275#14 -25583275#13 -25583275#12 -25583275#11 -25583275#10 -25583275#9 -25583275#7 -25583275#6 -25583275#5 -25583275#4 -25583275#3 -25583275#2 -25583275#1 -25583275#0 -476424891#9 -476424891#8 -476424891#7 -476424891#6 -476424891#4 -476424891#3 -476424891#0 -476424902 -400978919#1 -400978919#0 -400978922#3 -400978922#0 -400978918#0 -400978917#9 -400978917#8 -25561499#34"/>
    </vehicle>
    <vehicle id="c_21" type="c__passenger" depart="63.00">
        <route edges="-288794737#3 -288794737#2 -288794737#1 -904673614#10 -904673614#9 -904673614#8 -904673614#7 -904673614#6 -904673614#5 -904673614#4 -904673614#3 -904673614#2 -904673614#0 -560408571#1 -560408571#0 -560408570 -494611386#1 -494611386#0 -400978921 -494611366 494611373 494611384 400978920#0 494611382#0 400978917#2 400978917#3 400978917#4 400978917#5 400978917#7 400978917#8 400978917#9 400978917#10 400978918#2 400978922#3 40989444"/>
    </vehicle>
    <vehicle id="c_22" type="c__passenger" depart="66.00">
        <route edges="106545960#6 106545960#7 106545960#9 106545960#10 106545960#11 106545982#0 106545982#1 106545982#2 106545982#3 106545982#4 106545982#5 -78832776#1 -78832776#0 -1136015477#1 -1136015477#0 -400978923#2 -400978923#0 -419958545#1 -419958545#0 -559492773 -400978914#12 -400978914#11 -400978914#10 288974454#0"/>
    </vehicle>
    <vehicle id="c_23" type="c__passenger" depart="69.00">
        <route edges="-106550068#1 -106550068#0 -25630215#3 -25630215#2 -25630215#1 -25630215#0 -25630214 -25561514#3 -25561514#2 -25561514#1 -25561514#0 -494758078 725476479#1 -400978921 -494611366 494611373 494611384 400978920#0 494611382#0 400978917#2 400978917#3 400978917#4 400978917#5 400978917#7 400978917#8 400978917#9 400978917#10 400978918#2 400978922#3 40989444 -400978927#4 -400978927#3 -400978927#1 -400978927#0"/>
    </vehicle>
    <vehicle id="c_24" type="c__passenger" depart="72.00">
        <route edges="1428541327 27163191#5 27163191#6 1428541328 -26921982#2 494611382#0 400978917#2 400978917#3 400978917#4 400978917#5 400978917#7 -25561499#34 -25561499#33 745826132#0 745826132#1 745826132#3"/>
    </vehicle>
    <vehicle id="c_25" type="c__passenger" depart="75.00">
        <route edges="-711802514#11 -711802514#10 -711802514#9 -711802514#8 -711802514#7 -711802514#5 -711802514#4 -711802514#3 -711802514#2 -711802514#1 -711802514#0 -106550095#6 -106550095#5 -106550095#2 -106550095#1 -106550095#0 -106550073 -106550091 -106550068#1 -106550068#0 -25630215#3 -25630215#2 -25630215#1 25630529#0 25630529#1 25630529#2 25630529#3 25630529#6 25630529#7 25630529#10 25630529#11 25630529#12 25630529#13 25630529#14 25630529#17 25630529#18 25630529#19 25630529#20 25630529#21 25630529#23 25630529#24"/>
    </vehicle>
    <vehicle id="c_26" type="c__passenger" depart="78.00">
        <route edges="-376714133#5 -376714133#4 -376714133#3 -376714133#2 -376714133#1 -89562691 -1428609378#1 -89562705#2 -89562705#1 -89562705#0 80733949#0 80733949#1 23961341 725476478#0 725476478#1 725476476 27163042 -559446506 -400978929#18 -400978929#16 -400978929#12 -400978929#6 89562655#0 89562655#1 89562655#2"/>
    </vehicle>
    <vehicle id="c_28" type="c__passenger" depart="84.00">
        <route edges="-23627726#1 -23627726#0 -400978939 494611386#0 494611386#1 494611386#2 560408571#0 560408571#1 960080894 23173785#2 23961342 725476476 725476477#0 725476477#1 725476477#2 725476477#3 23173788 476424897 559446505#1 559446505#2 559446505#3 400978913#2 400978913#4 400978913#5 400978914#1 400978914#2 400978914#4 400978914#6 400978914#8 400978914#9 400978914#10 400978914#11 288974405"/>
    </vehicle>
    <vehicle id="c_29" type="c__passenger" depart="87.00">
        <route edges="-23173789#17 -23173789#16 -23173789#14 -23173789#13 -23173789#12 -23173789#11 -23173789#10 -23173789#7 -23173789#6 -23173789#5 -23173789#4 -23173789#3 -23173789#1 -23173789#0 -419958542 -400978937#5 -400978937#4 -400978937#3 -400978937#2 -400978937#1 -400978940#1 -400978940#0 -78828539#30"/>
    </vehicle>
    <vehicle id="c_30" type="c__passenger" depart="90.00">
        <route edges="902777249#1 902777248#0 902777248#1 902777248#2 902777248#3 -105159760#7 -105159760#6 -105159760#4 -105159760#3 -105159760#1 -105159760#0 -476424916#0 -23173789#17 -23173789#16 -23173789#14 -23173789#13 -23173789#12 -23173789#11 -23173789#10 -23173789#7 -23173789#6 -23173789#5 -23173789#4 -23173789#3 -23173789#1 -23173789#0 -419958542 -559492773 -400978914#12 -400978914#11 -400978914#10 -400978914#9 -400978914#8 -400978914#6 -400978914#4 -400978914#2 -400978914#1 -400978914#0 -400978913#4 -400978913#2 -400978913#1 -559446505#2 -559446505#1 -559446505#0 23961341 725476478#0 725476478#1 725476476 725476477#0 725476477#1 560408614 213545296#0"/>
    </vehicle>
    <vehicle id="b_3" type="b__bus" depart="90.00">
        <route edges="78828539#22 78828539#23 78828539#24 78828539#25 78828539#26 78828539#28 78828539#30 400978940#0 400978940#1 400978937#1 400978937#2 400978937#3 400978937#4 400978937#5 419958545#0 419958545#1 400978923#0 400978923#2 400978923#3 1136015477#1 78832776#0 78832776#1 -106545982#5"/>
    </vehicle>
    <vehicle id="t_3" type="t__truck" depart="90.00">
        <route edges="78828539#22 78828539#23 78828539#24 78828539#25 78828539#26 78828539#28 78828539#30 400978940#0 400978940#1 400978937#1 400978937#2 400978937#3 400978937#4 400978937#5 419958545#0 419958545#1 400978923#0 400978923#2 400978923#3 1136015477#1 78832776#0 78832776#1 -106545982#5"/>
    </vehicle>
    <vehicle id="c_31" type="c__passenger" depart="93.00">
        <route edges="105232027#6 105232027#7 105232027#8 -105232045#7 -105232045#6 -105232045#5 -105232045#4 -105232045#1 -105232045#0 -105232027#1 -105232027#0 -105232030#1 -105232030#0 400978917#9 400978917#10 400978918#2 400978922#3 476424892 400978919#1 476424902 476424891#0 476424891#2 476424891#4 476424891#6 476424891#7 476424891#8 476424891#9 25583275#0 25583275#1 25583275#2 25583275#3 25583275#4 25583275#5 25583275#6 25583275#7 25583275#9 25583275#10 25583275#11 25583275#12 25583275#13 25583275#14"/>
    </vehicle>
    <vehicle id="c_32" type="c__passenger" depart="96.00">
        <route edges="476424898#1 476424898#2 476424898#3 476424898#5 476424898#6 476424898#8 89562705#0 89562705#1 89562705#2 1428609378#1 1428609378#2 1428609378#4 -89562711#2 -89562711#1 -89562711#0 89562654#0 89562654#1 89562654#2 89562654#4 400978917#4 400978917#5 400978917#7 400978917#8 400978917#9"/>
    </vehicle>
    <vehicle id="c_33" type="c__passenger" depart="99.00">
        <route edges="-288794737#6 -288794737#4 -288794737#3 -288794737#2 -288794737#1 -904673614#10 -904673614#9 -904673614#8 -904673614#7 -904673614#6 -904673614#5 -904673614#4 -904673614#3 -904673614#2 -904673614#0 960080894 23173785#2 23961342 725476476 725476477#0 725476477#1 725476477#2 725476477#3 23173788 476424897 559446505#1 559446505#2 559446505#3 400978913#2 400978913#4 400978913#5 400978914#1 400978914#2 400978914#4 400978914#6 400978914#8 400978914#9 400978914#10 400978914#11 400978914#12 420093222 419958542 23173789#0 23173789#1 23173789#3 23173789#4 23173789#5 23173789#6 23173789#7 23173789#10 23173789#11 23173789#12 23173789#13 23173789#14 23173789#16 23173789#17 23173789#19 105159760#0 105159760#1 105159760#3 105159760#4 105159760#6 105159760#7 -902777248#3 -902777248#2 -902777248#1 -902777248#0 105159772#0 105159772#1 105159774#0 105159774#1 105159774#2 105159774#3 105159774#4 105159774#5 105159774#6 105159774#7 105159774#8"/>
    </vehicle>
    <vehicle id="c_34" type="c__passenger" depart="102.00">
        <route edges="-41691152#0 -878249329#11 -878249329#9 -878249329#7 -878249329#6 -878249329#4 -878249329#3 -878249329#2 -878249329#1 -878249329#0 -476424899#10 -476424899#9 -476424899#8 -476424899#5 -476424899#4 -476424899#2 -476424899#1 -476424899#0 -476424900#2 -476424900#1 -476424900#0 -89562653 878571563 376714133#0 376714133#1 376714133#2 376714133#3 376714133#4 376714133#5 89562654#0 89562654#1 89562654#2 89562654#4 -400978917#3 -400978917#2 -400978917#1"/>
    </vehicle>
    <vehicle id="c_35" type="c__passenger" depart="105.00">
        <route edges="-25630218#9 89562658#0 89562658#1 89562658#4 89562658#5 89562658#8 89562658#9 89562658#10 89562658#11 89562658#12 89562658#14 89562658#15 89562658#16"/>
    </vehicle>
    <vehicle id="c_36" type="c__passenger" depart="108.00">
        <route edges="715093627#1 400978930 400978929#1 400978929#5 400978929#6 400978929#8 400978929#13 400978929#18 400978929#19 27163017 725476477#1 725476477#2 725476477#3 23173788 476424897 559446505#1 559446505#2 559446505#3 400978913#2 -41691152#13 -41691152#12 -41691152#11 -41691152#10 -41691152#7 -41691152#6 -41691152#3 -41691152#2 -41691152#1 -41691152#0 -878249329#11 -878249329#9 -878249329#7 -878249329#6 -878249329#4 -878249329#3 -878249329#2 -878249329#1 -878249329#0 78828539#0 78828539#1 78828539#2 78828539#5 78828539#6 78828539#8 78828539#9 78828539#11 78828539#12 78828534#0 78828534#2 78828534#3 78828534#4 78828534#5 78828534#7 78828534#8 78828534#11 78828534#13 78828534#14 -41691155#3 -41691155#2 -41691155#1 -41691155#0 -41691163#26 -41691163#25 -41691163#24 -41691163#23 -41691163#20 -41691163#19 -41691163#17 -41691163#16 -41691163#15 -41691163#11 -41691163#10"/>
    </vehicle>
    <vehicle id="c_37" type="c__passenger" depart="111.00">
        <route edges="225682971#1 -931822795#1 -931822795#0 -876526142#0 -105232046 105232041#1 105232041#2 105232041#3 -89562654#4 -89562654#2 -89562654#1 -89562654#0 89562711#0 89562711#1 89562711#2 -1428609378#4 -1428609378#2 -1428609378#1 -89562705#2 -89562705#1 -89562705#0 80733949#0 80733949#1 476424897 559446505#1 559446505#2 559446505#3 400978913#2 400978913#4 400978913#5 400978914#1 400978914#2 400978914#4 400978914#6 400978914#8 400978914#9 400978914#10 400978914#11 288974405 288974450 -78832776#1 -78832776#0"/>
    </vehicle>
    <vehicle id="c_38" type="c__passenger" depart="114.00">
        <route edges="80444869#0 80444869#1 80444869#2 80444869#3 80444869#6 80444869#7 -23173789#7 -23173789#6 -23173789#5 -23173789#4 -23173789#3 -23173789#1 -23173789#0 -419958542 -400978937#5 -400978937#4 -400978937#3 -400978937#2 -400978937#1 -400978936#2 -400978936#1 -400978936#0 -25583275#22 -25583275#21 -25583275#18 -25583275#17 -25583275#15 -25583275#14 -25583275#13 -25583275#12 -25583275#11 -25583275#10 -25583275#9 -25583275#7 -25583275#6 -25583275#5 -25583275#4 -25583275#3 -25583275#2 -25583275#1 -25583275#0 -476424891#9 -476424891#8 -476424891#7 -476424891#6 -476424891#4 -476424891#3 -476424891#0 -89562703#33 -89562703#32 -89562703#30 -89562703#29 -89562703#28 -89562703#26"/>
    </vehicle>
    <vehicle id="c_39" type="c__passenger" depart="117.00">
        <route edges="-376714133#0 89562675#0 89562675#1 89562675#2 376714131 -878236050 -400978919#1 -400978919#0 40989444 -33189690#21 -33189690#19 -33189690#18 -33189690#17"/>
    </vehicle>
    <vehicle id="c_40" type="c__passenger" depart="120.00">
        <route edges="-105232030#17 -105232030#16 -105232030#13 -105232030#12 -105232030#10 -105232030#9 -105232030#6 -105232030#5 -105232030#4 -105232030#2 -105232030#1 -105232030#0 400978917#9 400978917#10 400978918#2 400978922#3 476424892 400978919#1 89562680 376714130#0 376714130#1 376714130#2 89562653 476424900#0 476424900#1 476424900#2 476424899#0 476424899#1 476424899#2 476424899#4 476424899#5 476424899#8 476424899#9 476424899#10 78828539#0 78828539#1 78828539#2 78828539#5 78828539#6 78828539#8 78828539#9 78828539#11 78828539#12 78828539#14 78828539#15 78828539#16 -78828552#17 -78828552#15 -78828552#14 -78828552#13 -78828552#12 -78828552#10 -78828552#7 -78828552#4 -78828552#3 -78828552#2 -400978914#9 -400978914#8 -400978914#6 -400978914#4 -400978914#2 -400978914#1 -400978914#0"/>
    </vehicle>
    <vehicle id="b_4" type="b__bus" depart="120.00">
        <route edges="-878571563 89562653 476424900#0 476424900#1 476424900#2 476424899#0 476424899#1 476424899#2 476424899#4 476424899#5 476424899#8 476424899#9 476424899#10 78828539#0 78828539#1 78828539#2 78828539#5 78828539#6 78828539#8 78828539#9 78828539#11 78828539#12 78828539#14 78828539#15 78828539#16 78828539#19 78828539#20 78828539#21 78828539#22 78828539#23 78828539#24 78828539#25 78828539#26 78828539#28 78828539#30 400978940#0 400978940#1 400978937#1 400978937#2 400978937#3 400978937#4 400978937#5 419958542 23173789#0 23173789#1 23173789#3 23173789#4 23173789#5 23173789#6 23173789#7 23173789#10 23173789#11 23173789#12 23173789#13 23173789#14 23173789#16 23173789#17 23173789#19 105159760#0 105159760#1 105159760#3 105159760#4 105159760#6 105159760#7 -902777248#3 -902777248#2 -902777248#1 -902777248#0 105159772#0 105159772#1 105159774#0 105159774#1 105159774#2 105159774#3"/>
    </vehicle>
    <vehicle id="t_4" type="t__truck" depart="120.00">