<?xml version="1.0" encoding="UTF-8"?>

<!-- generated on 2026-02-11T00:46:14.698632+00:00 by Eclipse SUMO netedit 1.25.0
-->

<additional xmlns:xsi="http://www.w3.org/2001/XMLSchema-instance" xsi:noNamespaceSchemaLocation="http://sumo.dlr.de/xsd/additional_file.xsd">
    <!-- StoppingPlaces -->
    <parkingArea id="pa_0" lane="213545293.15_0" startPos="0.00" endPos="48.30" width="6.00" lefthand="1">
        <space x="1372.74" y="1086.65" width="2.50" length="5.50"/>
        <space x="1375.74" y="1086.65" width="2.50" length="5.50"/>
        <space x="1378.74" y="1086.57" width="2.50" length="5.50"/>
        <space x="1381.83" y="1086.65" width="2.50" length="5.50"/>
        <space x="1384.83" y="1086.65" width="2.50" length="5.50"/>
        <space x="1387.74" y="1086.65" width="2.50" length="5.50"/>
        <space x="1390.74" y="1086.65" width="2.50" length="5.50"/>
        <space x="1393.66" y="1086.65" width="2.50" length="5.50"/>
        <space x="1396.83" y="1086.65" width="2.50" length="5.50"/>
        <space x="1399.83" y="1086.65" width="2.50" length="5.50"/>
        <space x="1402.99" y="1086.57" width="2.50" length="5.50"/>
        <space x="1405.91" y="1086.40" width="2.50" length="5.50"/>
        <space x="1408.91" y="1086.57" width="2.50" length="5.50"/>
        <space x="1411.83" y="1086.48" width="2.50" length="5.50"/>
        <space x="1414.83" y="1086.48" width="2.50" length="5.50"/>
        <space x="1417.64" y="1086.51" width="2.50" length="5.50"/>
    </parkingArea>
    <parkingArea id="pa_1" lane="213545293.15_0" startPos="0.00" endPos="48.43" width="6.00">
        <space x="1372.99" y="1098.56" width="2.50" length="5.50"/>
        <space x="1375.99" y="1098.73" width="2.50" length="5.50"/>
        <space x="1379.00" y="1098.56" width="2.50" length="5.50"/>
        <space x="1382.08" y="1098.48" width="2.50" length="5.50"/>
        <space x="1384.99" y="1098.39" width="2.50" length="5.50"/>
        <space x="1387.91" y="1098.48" width="2.50" length="5.50"/>
        <space x="1390.83" y="1098.64" width="2.50" length="5.50"/>
        <space x="1393.83" y="1098.73" width="2.50" length="5.50"/>
        <space x="1396.83" y="1098.56" width="2.50" length="5.50"/>
        <space x="1399.83" y="1098.73" width="2.50" length="5.50"/>
        <space x="1402.91" y="1098.48" width="2.50" length="5.50"/>
        <space x="1405.83" y="1098.56" width="2.50" length="5.50"/>
        <space x="1408.74" y="1098.39" width="2.50" length="5.50"/>
        <space x="1411.74" y="1098.39" width="2.50" length="5.50"/>
        <space x="1414.83" y="1098.39" width="2.50" length="5.50"/>
        <space x="1417.91" y="1098.64" width="2.50" length="5.50"/>
    </parkingArea>
    <parkingArea id="pa_2" lane="213545293.71_0" startPos="0.00" endPos="13.82" width="6.00">
        <space x="1432.86" y="1089.82" width="2.50" length="5.50" angle="90.00"/>
        <space x="1432.91" y="1083.94" width="2.50" length="5.50" angle="90.00"/>
        <space x="1432.85" y="1086.87" width="2.50" length="5.50" angle="90.00"/>
        <space x="1432.90" y="1081.00" width="2.50" length="5.50" angle="90.00"/>
        <space x="1432.89" y="1078.19" width="2.50" length="5.50" angle="90.00"/>
    </parkingArea>
    <parkingArea id="pa_3" lane="213545293.87_0" startPos="0.00" endPos="54.00" width="6.00" lefthand="1">
        <space x="1368.77" y="1075.98" width="2.50" length="5.50"/>
        <space x="1371.56" y="1076.04" width="2.50" length="5.50"/>
        <space x="1374.36" y="1076.02" width="2.50" length="5.50"/>
        <space x="1377.25" y="1076.02" width="2.50" length="5.50"/>
        <space x="1380.09" y="1075.89" width="2.50" length="5.50"/>
        <space x="1383.04" y="1075.85" width="2.50" length="5.50"/>
        <space x="1385.99" y="1076.05" width="2.50" length="5.50"/>
        <space x="1389.00" y="1076.05" width="2.50" length="5.50"/>
        <space x="1392.04" y="1076.09" width="2.50" length="5.50"/>
        <space x="1395.09" y="1076.00" width="2.50" length="5.50"/>
        <space x="1398.03" y="1076.02" width="2.50" length="5.50"/>
        <space x="1401.03" y="1075.90" width="2.50" length="5.50"/>
        <space x="1404.15" y="1075.89" width="2.50" length="5.50"/>
        <space x="1407.16" y="1075.81" width="2.50" length="5.50"/>
        <space x="1410.17" y="1075.84" width="2.50" length="5.50"/>
        <space x="1413.30" y="1075.76" width="2.50" length="5.50"/>
        <space x="1416.25" y="1075.86" width="2.50" length="5.50"/>
        <space x="1419.42" y="1075.78" width="2.50" length="5.50"/>
    </parkingArea>
    <parkingArea id="pa_4" lane="213545293.87_0" startPos="0.00" endPos="54.00" width="6.00">
        <space x="1368.61" y="1064.24" width="2.50" length="5.50"/>
        <space x="1371.48" y="1064.20" width="2.50" length="5.50"/>
        <space x="1374.29" y="1064.16" width="2.50" length="5.50"/>
        <space x="1377.35" y="1064.16" width="2.50" length="5.50"/>
        <space x="1380.29" y="1064.19" width="2.50" length="5.50"/>
        <space x="1383.21" y="1064.10" width="2.50" length="5.50"/>
        <space x="1386.21" y="1064.05" width="2.50" length="5.50"/>
        <space x="1389.17" y="1064.14" width="2.50" length="5.50"/>
        <space x="1392.08" y="1063.97" width="2.50" length="5.50"/>
        <space x="1395.13" y="1063.93" width="2.50" length="5.50"/>
        <space x="1398.21" y="1064.05" width="2.50" length="5.50"/>
        <space x="1401.29" y="1064.14" width="2.50" length="5.50"/>
        <space x="1404.25" y="1063.91" width="2.50" length="5.50"/>
        <space x="1407.21" y="1064.04" width="2.50" length="5.50"/>
        <space x="1410.37" y="1063.92" width="2.50" length="5.50"/>
        <space x="1413.45" y="1063.79" width="2.50" length="5.50"/>
        <space x="1416.40" y="1063.92" width="2.50" length="5.50"/>
        <space x="1419.56" y="1063.88" width="2.50" length="5.50"/>
    </parkingArea>
</additional>
